       1 4
       2 3
       3 3
       4 3
       5 3
       6 3
       7 3
       8 2
       9 3
       B 1
       C 2
       D 2
       E 1
       F 1
       H 1
       I 1
       K 1
      10 3
      11 3
      12 3
      13 3
      14 4
      15 3
      16 3
      17 2
      18 3
      19 3
      1C 1
      1D 1
      1G 1
      1K 1
      1L 1
      1M 1
      1W 1
      1Y 1
      2  1
      20 4
      21 2
      22 3
      23 3
      24 4
      25 3
      26 4
      27 3
      28 3
      29 2
      2D 1
      2K 1
      2L 1
      2M 1
      2S 1
      2W 1
      2Y 1
      3  1
      30 3
      31 2
      32 4
      33 3
      34 4
      35 3
      36 3
      37 3
      38 3
      39 4
      3C 1
      3D 1
      3K 1
      3L 1
      3M 1
      3W 1
      3Y 1
      4  1
      40 4
      41 4
      42 4
      43 4
      44 4
      45 4
      46 4
      47 4
      48 2
      49 5
      4C 1
      4D 1
      4K 1
      4M 1
      4W 1
      5  1
      50 5
      51 4
      52 5
      53 4
      54 3
      55 5
      56 5
      57 4
      58 3
      59 4
      5C 1
      5D 1
      5K 1
      5L 1
      5M 1
      5S 1
      5W 1
      6  1
      60 4
      61 4
      62 3
      63 3
      64 3
      65 4
      66 4
      67 4
      68 4
      69 5
      6C 1
      6D 1
      6K 1
      6L 1
      6S 1
      6W 1
      7  2
      70 5
      71 5
      72 5
      73 2
      74 2
      75 2
      76 2
      77 2
      78 2
      79 2
      7C 1
      7D 1
      7K 1
      7L 1
      7M 1
      7S 1
      7W 1
      8  2
      80 2
      81 2
      82 2
      83 4
      84 4
      85 3
      86 4
      87 3
      88 2
      89 2
      8C 1
      8D 1
      8L 1
      8S 1
      8W 1
      9  2
      90 3
      91 3
      92 2
      93 3
      94 2
      95 2
      96 4
      97 2
      98 2
      99 3
      9C 1
      9D 1
      9K 1
      9L 1
      9M 1
      9N 1
      9S 1
      9W 1
      A1 1
      A2 1
      A3 1
      A5 1
      A6 1
      A7 1
      B1 3
      B2 4
      B3 3
      B4 4
      B5 4
      B6 4
      B7 2
      B8 4
      B9 4
      C1 1
      C2 1
      C3 1
      C4 1
      C5 1
      C6 1
      C7 1
      C8 1
      C9 1
      CB 1
      F1 1
      F2 1
      F3 1
      F4 1
      F5 1
      F6 1
      F7 1
      F8 1
      F9 1
      G3 1
      G5 1
      G7 1
      H6 1
      H7 1
      HB 1
      HC 1
      HD 1
      HE 1
      HF 1
      HG 1
      HH 1
      IB 1
      K1 1
      K2 1
      K3 1
      K4 1
      K5 1
      K6 1
      K7 1
      K8 1
      K9 1
      M1 2
      M2 2
      M3 2
      M4 1
      M5 2
      M6 2
      M7 2
      M8 1
      M9 1
      P1 3
      P2 3
      P3 3
      P4 3
      P5 4
      P6 3
      P7 3
      P8 4
      P9 3
      PA 2
      PB 1
      R1 1
      R2 1
      R3 1
      R4 1
      R5 1
      R6 1
      R7 1
      S1 1
      S2 1
      S3 1
      S4 1
      S5 1
      S6 2
      S7 1
      SB 1
      T1 1
      T2 1
      T3 1
      T4 1
      T5 1
      T6 2
      T7 1
      T8 2
      T9 2
      U6 1
      W1 1
      W2 1
      W3 1
      W4 1
      W6 1
      W7 1
      W8 1
      W9 1
      X8 1
      r  2
     001 2
     002 2
     003 1
     004 3
     005 2
     006 1
     007 1
     008 2
     009 1
     010 1
     011 2
     012 1
     013 1
     014 1
     015 1
     016 1
     017 1
     018 2
     019 1
     020 2
     021 1
     022 1
     023 1
     024 1
     025 1
     026 1
     027 1
     028 2
     029 2
     030 1
     031 1
     032 1
     033 2
     034 1
     035 2
     036 2
     037 1
     038 2
     039 1
     040 2
     041 2
     042 1
     043 1
     044 2
     045 2
     046 2
     047 1
     048 1
     049 1
     050 2
     051 2
     052 2
     053 1
     054 1
     055 2
     056 2
     057 1
     058 2
     059 2
     060 1
     061 2
     062 2
     063 1
     064 1
     065 1
     066 1
     067 1
     068 2
     069 2
     070 2
     071 1
     072 2
     073 2
     074 2
     075 2
     076 2
     077 1
     078 1
     079 2
     080 2
     081 1
     082 2
     083 2
     084 2
     085 2
     086 1
     087 1
     088 2
     089 1
     090 2
     091 1
     092 1
     093 1
     094 1
     095 1
     096 1
     097 1
     098 1
     099 2
     1-1 2
     1-2 2
     1-3 2
     1-4 2
     1-5 2
     1-6 2
     1-7 2
     1-8 2
     1-9 2
     10  1
     100 4
     101 5
     102 4
     103 3
     104 5
     105 5
     106 4
     107 4
     108 5
     109 3
     10D 1
     10L 1
     10M 1
     10S 1
     10W 1
     11  1
     110 3
     111 2
     112 3
     113 2
     114 3
     115 2
     116 3
     117 3
     118 3
     119 2
     11D 1
     11K 1
     11L 1
     11S 1
     11W 1
     12  2
     120 3
     121 4
     122 4
     123 3
     124 2
     125 3
     126 2
     127 4
     128 3
     129 3
     12D 1
     12L 1
     12S 1
     12W 1
     13  2
     130 3
     131 4
     132 2
     133 3
     134 3
     135 3
     136 2
     137 3
     138 4
     139 5
     13D 1
     13K 1
     13L 1
     13M 1
     13S 1
     13W 1
     14  1
     140 3
     141 3
     142 6
     143 5
     144 5
     145 4
     146 6
     147 6
     148 3
     149 2
     14D 1
     14K 1
     14L 1
     14S 1
     14W 1
     15  2
     150 4
     151 3
     152 5
     153 3
     154 6
     155 4
     156 5
     157 4
     158 3
     159 4
     15D 1
     15K 1
     15L 1
     15M 1
     15S 1
     15W 1
     16  2
     160 3
     161 2
     162 2
     163 3
     164 4
     165 4
     166 5
     167 5
     168 5
     169 5
     16D 1
     16K 1
     16L 1
     16S 1
     16W 1
     17  2
     170 5
     171 6
     172 6
     173 6
     174 5
     175 5
     176 5
     177 6
     178 5
     179 5
     17D 1
     17L 1
     17M 1
     17S 1
     17W 1
     18  2
     180 6
     181 5
     182 5
     183 4
     184 4
     185 6
     186 6
     187 6
     188 6
     189 7
     18D 1
     18L 1
     18M 1
     18S 1
     19  2
     190 4
     191 5
     192 5
     193 4
     194 6
     195 6
     196 4
     197 3
     198 3
     199 2
     19D 1
     19L 1
     19M 1
     19N 1
     19S 1
     19W 1
     1G7 2
     1RJ 1
     1rj 1
     2-1 2
     2-2 2
     2-3 2
     2-4 2
     2-5 2
     2-6 2
     2-7 2
     2-8 2
     2-9 2
     20  2
     200 4
     201 6
     202 3
     203 4
     204 6
     205 6
     206 6
     207 6
     208 5
     209 6
     20D 1
     20L 1
     20S 1
     20W 1
     21  2
     210 4
     211 4
     212 3
     213 4
     214 4
     215 4
     216 4
     217 3
     218 4
     219 4
     21D 1
     21L 1
     21M 1
     21S 1
     21W 1
     22  1
     220 4
     221 3
     222 4
     223 4
     224 4
     225 4
     226 4
     227 5
     228 4
     229 4
     22D 1
     22L 1
     22S 1
     22W 1
     23  2
     230 5
     231 5
     232 5
     233 4
     234 5
     235 5
     236 5
     237 3
     238 3
     239 4
     23D 1
     23L 1
     23S 2
     23W 1
     24  2
     240 3
     241 5
     242 3
     243 3
     244 3
     245 2
     246 4
     247 3
     248 4
     249 3
     24B 1
     24D 1
     24L 1
     24S 1
     24W 1
     25  2
     250 4
     251 4
     252 4
     253 4
     254 3
     255 3
     256 3
     257 4
     258 3
     259 3
     25D 1
     25L 1
     25W 1
     26  2
     260 3
     261 3
     262 3
     263 3
     264 3
     265 3
     266 3
     267 3
     268 3
     269 2
     26D 1
     26S 1
     26W 1
     27  2
     270 4
     271 3
     272 4
     273 5
     274 4
     275 5
     276 5
     277 5
     278 3
     279 4
     27B 2
     27C 2
     27D 1
     27L 1
     27S 1
     27W 1
     28  2
     280 2
     281 3
     282 3
     283 3
     284 4
     285 4
     286 4
     287 4
     288 3
     289 4
     28D 1
     28L 1
     28W 1
     29  2
     290 4
     291 3
     292 5
     293 4
     294 4
     295 3
     296 3
     297 3
     298 4
     299 4
     29D 1
     29L 1
     29W 1
     2RJ 1
     3-1 2
     3-2 2
     3-3 2
     3-4 2
     3-5 2
     3-6 2
     3-7 2
     3-8 2
     3-9 2
     30  2
     300 3
     301 3
     302 2
     303 3
     304 2
     305 3
     306 3
     307 3
     308 2
     309 3
     30D 1
     30L 1
     30S 2
     31  2
     310 2
     311 1
     312 2
     313 3
     314 2
     315 2
     316 3
     317 4
     318 3
     319 3
     31D 1
     31L 1
     31S 2
     31W 1
     32  2
     320 1
     321 3
     322 3
     323 2
     324 3
     325 2
     326 3
     327 3
     328 2
     329 2
     32D 1
     32L 1
     32S 1
     32W 1
     33  2
     330 2
     331 1
     332 2
     333 2
     334 2
     335 2
     336 3
     337 3
     338 3
     339 4
     33D 1
     33L 1
     33S 1
     33W 1
     34  2
     340 3
     341 5
     342 4
     343 4
     344 4
     345 4
     346 4
     347 3
     348 3
     349 4
     34D 1
     34L 1
     34S 1
     34W 1
     35  2
     350 2
     351 4
     352 2
     353 4
     354 4
     355 4
     356 4
     357 4
     358 3
     359 4
     35D 1
     35L 1
     35S 1
     35W 1
     36  2
     360 1
     361 2
     362 3
     363 1
     364 4
     365 1
     366 2
     367 2
     369 1
     36D 1
     36L 1
     36W 1
     37  2
     370 3
     371 3
     372 3
     373 3
     374 4
     375 3
     376 4
     377 2
     378 1
     379 1
     37D 1
     37L 1
     37S 1
     37W 1
     38  2
     380 3
     381 3
     382 5
     383 4
     384 3
     385 4
     386 3
     387 4
     388 4
     389 4
     38D 1
     38L 1
     38S 1
     38W 1
     39  2
     390 5
     391 5
     392 3
     393 4
     394 3
     395 2
     396 3
     397 4
     398 4
     399 3
     39D 1
     39L 1
     39S 1
     39W 1
     3AR 2
     3\4 1
     4-1 1
     4-2 2
     4-3 2
     4-4 2
     4-5 1
     4-6 2
     4-7 2
     4-8 2
     4-9 2
     40  2
     400 5
     401 5
     402 4
     403 4
     404 4
     405 5
     406 4
     407 4
     408 5
     409 4
     40D 1
     40L 1
     40S 1
     40W 1
     41  2
     410 3
     411 4
     412 4
     413 4
     414 4
     415 4
     416 4
     417 4
     418 4
     419 3
     41D 1
     41L 1
     41S 1
     41W 1
     42  2
     420 4
     421 4
     422 4
     423 5
     424 5
     425 4
     426 5
     427 3
     428 3
     429 2
     42D 1
     42L 1
     42S 1
     430 3
     431 5
     432 4
     433 3
     434 5
     435 4
     436 2
     437 4
     438 2
     439 4
     43D 1
     43L 1
     43S 1
     44  2
     440 3
     441 4
     442 4
     443 5
     444 4
     445 3
     446 4
     447 4
     448 3
     449 3
     44D 1
     44L 1
     44S 1
     45  1
     450 4
     451 5
     452 5
     453 5
     454 3
     455 4
     456 4
     457 6
     458 4
     459 4
     45D 1
     45L 1
     46  2
     460 4
     461 3
     462 3
     463 2
     464 4
     465 3
     466 4
     467 4
     468 5
     469 4
     46D 1
     46L 1
     46S 1
     47  1
     470 4
     471 3
     472 3
     473 5
     474 4
     475 4
     476 3
     477 4
     478 5
     479 4
     47D 1
     47L 1
     47S 1
     48  2
     480 5
     481 4
     482 4
     483 4
     484 3
     485 4
     486 4
     487 4
     488 4
     489 3
     48D 1
     48L 1
     48S 1
     49  1
     490 5
     491 5
     492 4
     493 4
     494 4
     495 4
     496 5
     497 4
     498 3
     499 4
     49D 1
     49L 1
     4AR 1
     4RJ 1
     5-1 2
     5-2 2
     5-3 2
     5-4 2
     5-5 2
     5-6 2
     5-7 2
     5-8 2
     5-9 2
     50  1
     500 5
     501 4
     502 5
     503 4
     504 3
     505 5
     506 4
     507 3
     508 5
     509 4
     50S 1
     51  2
     510 5
     511 4
     512 4
     513 3
     514 3
     515 4
     516 5
     517 5
     518 3
     519 5
     51D 1
     51L 1
     51S 1
     52  2
     520 5
     521 6
     522 4
     523 5
     524 5
     525 4
     526 5
     527 5
     528 5
     529 6
     52D 1
     52L 1
     52S 1
     53  2
     530 5
     531 5
     532 5
     533 4
     534 4
     535 4
     536 2
     537 4
     538 3
     539 3
     53D 1
     53L 1
     53S 1
     54  2
     540 2
     541 3
     542 4
     543 3
     544 4
     545 3
     546 3
     547 1
     548 2
     549 2
     54D 1
     54L 1
     54S 1
     55  2
     550 4
     551 3
     552 2
     553 1
     554 2
     555 2
     557 2
     558 1
     559 1
     55D 1
     55L 1
     55S 1
     56  2
     560 3
     561 2
     562 2
     563 2
     564 1
     565 2
     566 2
     567 1
     568 2
     569 1
     56D 1
     56L 1
     56S 1
     57  3
     570 2
     572 1
     573 1
     574 1
     575 1
     576 2
     577 1
     578 1
     579 1
     57D 1
     57L 1
     57S 1
     58  3
     580 1
     581 1
     582 1
     583 1
     584 1
     585 1
     586 1
     587 1
     588 1
     589 1
     58D 1
     58L 1
     58S 1
     59  1
     590 1
     591 1
     592 1
     593 1
     594 1
     595 1
     596 1
     597 1
     598 1
     599 1
     59D 1
     59L 1
     59S 1
     5G1 1
     6-1 1
     6-2 1
     6-3 2
     6-4 1
     6-5 2
     6-6 1
     6-7 1
     6-8 1
     6-9 2
     60  1
     600 1
     601 1
     602 1
     603 1
     605 1
     606 1
     607 1
     608 2
     609 2
     60D 1
     60L 1
     60S 1
     61  1
     610 2
     611 2
     612 2
     613 2
     614 3
     615 1
     616 2
     617 2
     618 2
     619 2
     61D 1
     61L 1
     61S 1
     62  1
     620 1
     621 1
     622 1
     623 2
     624 1
     625 1
     626 1
     627 3
     628 1
     629 2
     62D 1
     62L 1
     62S 1
     63  2
     630 2
     631 2
     632 3
     633 3
     634 2
     635 2
     636 1
     637 2
     638 2
     639 3
     63D 1
     63L 1
     63S 1
     64  2
     640 3
     641 2
     642 3
     643 3
     644 3
     645 3
     646 3
     647 3
     648 3
     649 2
     64D 1
     64L 1
     65  1
     650 3
     651 3
     652 3
     653 3
     654 3
     655 3
     656 3
     657 3
     658 2
     659 2
     65D 1
     65L 1
     65S 1
     66  1
     660 2
     661 2
     662 2
     663 3
     664 2
     665 3
     666 2
     667 2
     668 2
     669 3
     66D 1
     66L 1
     66S 1
     67  1
     670 2
     671 2
     672 1
     673 2
     674 3
     675 3
     676 2
     677 3
     678 3
     679 3
     67D 1
     67L 1
     67S 1
     68  1
     680 2
     681 3
     682 3
     683 2
     684 1
     685 1
     686 2
     687 2
     688 3
     689 2
     68L 1
     69  1
     690 2
     691 1
     692 2
     693 2
     694 1
     695 1
     696 1
     697 2
     698 2
     699 1
     69D 1
     69L 1
     69S 1
     6AR 1
     6G2 1
     7-1 2
     7-2 1
     7-3 2
     7-4 2
     7-5 2
     7-6 2
     7-7 2
     7-8 2
     7-9 2
     70  1
     700 2
     701 3
     702 2
     703 3
     704 3
     705 3
     706 2
     707 3
     708 2
     709 4
     70D 1
     70L 1
     71  1
     710 1
     711 3
     712 3
     713 2
     714 2
     715 1
     716 2
     717 2
     718 2
     719 2
     71D 1
     71L 1
     72  1
     720 2
     721 3
     722 3
     723 3
     724 1
     725 1
     726 1
     727 1
     728 2
     729 1
     72D 1
     72L 1
     730 2
     731 1
     734 1
     735 1
     736 1
     737 2
     738 1
     739 2
     73D 1
     73L 1
     74  1
     740 3
     741 3
     742 3
     743 3
     744 3
     745 3
     746 2
     747 2
     748 2
     749 3
     74D 1
     74L 1
     75  1
     750 3
     751 3
     752 3
     753 4
     754 3
     755 3
     756 3
     757 2
     758 2
     759 3
     75D 1
     75L 1
     76  1
     760 3
     761 2
     762 2
     763 1
     764 2
     765 2
     766 2
     767 1
     768 2
     769 2
     76D 1
     76L 1
     77  1
     770 3
     771 3
     772 3
     773 4
     774 2
     775 3
     776 2
     777 4
     778 4
     779 3
     77D 1
     77L 1
     78  2
     780 5
     781 4
     782 4
     783 4
     784 3
     785 3
     786 3
     787 3
     788 3
     789 3
     78D 1
     78L 1
     79  1
     790 3
     791 3
     792 3
     793 3
     794 3
     795 3
     796 2
     797 2
     798 3
     799 3
     79D 1
     79L 1
     8-3 1
     8-8 1
     8-9 1
     80  1
     800 4
     801 3
     802 4
     803 2
     804 3
     805 3
     806 3
     807 4
     808 2
     809 3
     80D 1
     80L 1
     81  1
     810 4
     811 3
     812 4
     813 1
     814 3
     815 4
     816 3
     817 4
     818 3
     819 5
     81D 1
     81L 1
     820 4
     821 4
     822 4
     823 3
     824 3
     825 3
     826 2
     827 3
     828 3
     829 2
     82D 1
     82L 1
     83  1
     830 2
     831 3
     832 2
     833 2
     834 2
     835 3
     836 2
     837 3
     838 2
     839 3
     83D 1
     83L 1
     840 2
     841 3
     842 3
     843 2
     844 2
     845 3
     846 3
     847 3
     848 3
     849 3
     84D 1
     84L 1
     85  1
     850 3
     851 4
     852 4
     853 4
     854 3
     855 3
     856 4
     857 4
     858 3
     859 3
     85A 1
     85B 1
     85C 1
     85D 2
     85E 1
     85F 1
     85G 1
     85H 1
     85I 1
     85K 1
     85L 2
     85M 1
     85N 1
     85O 1
     85P 1
     86  1
     860 3
     861 4
     862 4
     863 4
     864 4
     865 4
     866 4
     867 4
     868 3
     869 4
     86A 1
     86B 1
     86D 1
     86L 1
     87  1
     870 4
     871 4
     872 4
     873 3
     874 3
     875 4
     876 4
     877 4
     878 4
     879 3
     87D 1
     87L 1
     880 4
     881 4
     882 4
     883 3
     884 3
     885 2
     886 3
     887 2
     888 4
     889 2
     88D 1
     88L 1
     89  1
     890 1
     891 2
     892 2
     893 2
     894 3
     895 2
     896 2
     897 3
     898 2
     899 2
     89L 1
     8G3 1
     9-5 1
     9-6 1
     90  1
     900 3
     901 3
     902 2
     903 3
     904 2
     905 3
     906 3
     907 2
     908 2
     909 3
     90D 1
     90L 1
     91  1
     910 2
     911 3
     912 2
     913 2
     914 2
     915 2
     916 3
     917 3
     918 3
     919 3
     91D 1
     91L 1
     92  1
     920 2
     921 2
     922 2
     923 2
     924 2
     925 1
     926 1
     927 1
     928 1
     92D 1
     92L 1
     93  1
     933 1
     939 1
     93L 1
     94  1
     941 1
     945 1
     949 1
     94L 1
     95  1
     95D 1
     95L 1
     96  1
     963 1
     967 1
     968 1
     969 1
     96D 1
     96L 1
     97  1
     970 1
     971 1
     972 1
     973 1
     974 1
     976 1
     97D 1
     97L 1
     98  1
     982 1
     986 1
     98D 1
     98L 1
     99  1
     992 1
     996 1
     99L 1
     A13 1
     A14 1
     A15 1
     A16 1
     A17 1
     A1G 1
     A7A 1
     A7B 1
     B10 4
     B11 4
     B12 3
     B13 3
     B14 3
     B15 5
     B16 4
     B17 4
     B18 3
     B19 2
     B1A 1
     B20 4
     B21 3
     B22 3
     B23 3
     B24 1
     B25 2
     B26 1
     B27 2
     B28 1
     B29 2
     B30 2
     B31 1
     B32 1
     B33 1
     B34 1
     B35 1
     B36 1
     B37 1
     B38 1
     B39 1
     B40 1
     B41 1
     B45 1
     B56 1
     B57 1
     B58 1
     B59 1
     B60 1
     B61 1
     B62 1
     B63 2
     B64 2
     B65 2
     B66 2
     B67 2
     B68 2
     B69 1
     B70 2
     B71 1
     B72 1
     B73 1
     B74 1
     B75 2
     B76 1
     B77 1
     B78 2
     B79 1
     B80 1
     B82 1
     B83 1
     B85 1
     B87 1
     B88 1
     B89 1
     B90 1
     B91 1
     B92 1
     B93 1
     B94 1
     B95 1
     B96 1
     B97 1
     B98 1
     B99 1
     BD1 1
     BLE 1
     BP2 1
     BP7 1
     C01 1
     C10 2
     C11 2
     C12 1
     C13 1
     C14 2
     C15 1
     C16 2
     C17 2
     C18 1
     C19 1
     C20 1
     C21 1
     C23 1
     C25 1
     C26 1
     C29 1
     C30 1
     C31 1
     C58 1
     CB1 1
     CB2 1
     CB3 1
     CB4 1
     CB5 1
     CB6 1
     CB7 1
     CB8 1
     CB9 1
     CL1 1
     CL2 1
     CL3 1
     CL4 1
     CL5 1
     CL6 1
     CL7 1
     CL8 1
     CL9 1
     E10 1
     E11 1
     E12 1
     E14 1
     E15 1
     E16 1
     E17 1
     E21 1
     E22 1
     E23 1
     E24 1
     E29 1
     E44 1
     EQ1 1
     EQ2 1
     EQ4 1
     EQ6 1
     EQ7 1
     EQ8 1
     EQ9 1
     F10 1
     F11 1
     F12 1
     F13 1
     F14 1
     F15 1
     F16 1
     F17 1
     F18 1
     F19 1
     F20 1
     F21 1
     F22 1
     F23 1
     F24 1
     F25 1
     F27 1
     F28 1
     F29 1
     F30 1
     F31 1
     F32 1
     F33 1
     F34 1
     F35 1
     F36 1
     F37 1
     F38 1
     F39 1
     F40 1
     F41 1
     F42 1
     F43 1
     F44 1
     F45 1
     F46 1
     F48 1
     F49 1
     F50 1
     F51 1
     F53 1
     F54 1
     F56 1
     F57 1
     F58 1
     F59 1
     F60 1
     F61 1
     F62 1
     F63 1
     F64 1
     F65 1
     F66 1
     F67 1
     F68 1
     F69 1
     F70 1
     F71 1
     F72 1
     F73 1
     F74 1
     F75 1
     F76 1
     F77 1
     F78 1
     F79 1
     F80 1
     F81 1
     F82 1
     F83 1
     F84 1
     F85 1
     F86 1
     F87 1
     F88 1
     F89 1
     F90 1
     F91 1
     F92 1
     F93 1
     F94 1
     F95 1
     F96 1
     F97 1
     F98 1
     F99 1
     G21 1
     G24 1
     G25 2
     G27 1
     G29 1
     G49 1
     G84 1
     G85 1
     G86 1
     G90 1
     G91 1
     G99 1
     JC1 1
     JC2 1
     JC3 1
     JC4 1
     JC5 1
     JC6 1
     JC7 1
     JC8 1
     JC9 1
     K10 1
     K11 1
     K12 1
     K13 1
     K14 1
     K15 1
     K16 1
     K19 1
     K21 1
     K23 1
     K24 1
     K30 1
     K31 1
     K34 1
     K35 1
     K37 1
     K38 1
     K40 1
     K41 1
     K42 1
     K43 1
     K44 1
     K46 1
     K47 1
     K48 1
     K50 1
     K51 1
     K52 1
     K53 2
     K54 1
     K55 1
     K57 1
     K60 1
     K63 1
     K64 1
     K65 1
     K66 1
     KE1 1
     KE2 1
     KE3 1
     KK1 1
     KK2 1
     KK3 1
     KK4 1
     KK5 1
     KK6 1
     KK7 1
     KK8 1
     KK9 1
     KT2 1
     KT5 1
     KT7 1
     KT9 1
     L5A 1
     LB1 1
     LB3 1
     LB4 1
     LB5 1
     LB6 1
     LP1 1
     LP2 1
     LV3 1
     LV4 1
     LV5 1
     LV6 1
     LV7 1
     LV8 1
     LV9 1
     M10 2
     M12 1
     M13 2
     M14 1
     M15 2
     M16 2
     M17 2
     M18 2
     M19 2
     M20 2
     M21 1
     M22 1
     M23 1
     M24 1
     M25 2
     M26 2
     M27 2
     M28 1
     M29 1
     M31 1
     MA1 1
     MA2 1
     MA3 1
     MA4 1
     MA5 1
     MA6 1
     MA7 1
     MA8 1
     MA9 1
     MBC 1
     MBD 1
     MBE 1
     MBF 1
     MBG 1
     ML2 1
     ML3 1
     ML4 1
     ML5 1
     ML6 1
     ML7 1
     ML8 1
     MR1 1
     MR2 1
     MR3 1
     MR4 1
     MR5 1
     NO1 1
     NO2 1
     NO3 1
     NO4 1
     NO5 1
     NO6 1
     NO7 1
     NO8 1
     NO9 1
     P1  1
     P10 3
     P11 3
     P12 3
     P13 3
     P14 3
     P15 2
     P16 4
     P17 4
     P18 4
     P19 3
     P1X 1
     P2  1
     P20 3
     P21 3
     P22 3
     P23 4
     P24 4
     P25 4
     P26 4
     P27 3
     P28 3
     P29 4
     P3  1
     P30 4
     P31 3
     P32 4
     P33 4
     P34 4
     P35 1
     P36 1
     P37 1
     P38 1
     P39 1
     P4  1
     P40 1
     P41 1
     P42 1
     P43 1
     P44 1
     P45 1
     P46 1
     P47 1
     P48 1
     P49 1
     P5  1
     P50 1
     P51 1
     P52 1
     P53 1
     P54 1
     P55 1
     P56 1
     P57 1
     P58 1
     P59 1
     P6  1
     P60 1
     P61 1
     P62 1
     P63 1
     P64 1
     P65 1
     P66 1
     P67 1
     P68 1
     P69 1
     P7  1
     P70 1
     P71 1
     P72 1
     P73 1
     P74 1
     P75 1
     P76 1
     P77 1
     P78 1
     P79 1
     P8  1
     P80 1
     P81 1
     P82 1
     P83 1
     P84 1
     P85 1
     P86 1
     P87 1
     P88 1
     P89 1
     P90 1
     P91 1
     P92 1
     P93 1
     P94 1
     P95 1
     P96 1
     P97 1
     P98 1
     P99 1
     PA1 1
     PA2 1
     PA3 1
     PA4 1
     PA5 1
     PA6 1
     PA7 1
     PA8 1
     PA9 1
     PP4 1
     R1  1
     R2  1
     R3  1
     R4  1
     R5  1
     R6  1
     R7  1
     R8  1
     R9  1
     RA1 1
     RA2 1
     RC1 1
     RIP 1
     S47 1
     SA1 1
     SA2 1
     SA3 1
     SA4 1
     SA5 1
     SA6 1
     SA7 1
     SA8 1
     SA9 1
     SB1 1
     SB2 1
     SB3 1
     SB4 1
     SB5 1
     SB6 1
     SB7 1
     SB8 1
     SB9 1
     SI2 1
     SI3 1
     SI5 1
     SI6 1
     SI7 1
     SI8 1
     SI9 1
     SL1 1
     SL2 1
     SL3 1
     SL4 1
     SL5 1
     SL6 1
     SL7 1
     SL8 1
     SL9 1
     T10 1
     T11 2
     T12 2
     T13 1
     T14 2
     T15 2
     T16 2
     T17 2
     T18 2
     T19 2
     T20 2
     T21 2
     T22 2
     T23 1
     T24 1
     T25 2
     T26 2
     T27 2
     T28 2
     T29 2
     T30 1
     T31 2
     T32 1
     T33 1
     T34 1
     T35 1
     T36 1
     T37 1
     T38 1
     T39 1
     T40 1
     T41 1
     T42 1
     T43 1
     T44 1
     T45 1
     T46 1
     T47 1
     T48 1
     T49 1
     T50 1
     T51 1
     T52 1
     T53 1
     T54 1
     T55 1
     T56 1
     T57 1
     T58 1
     T59 1
     T60 1
     T61 1
     T62 1
     T63 1
     T64 1
     T65 1
     T66 1
     T67 1
     T68 1
     T69 1
     T70 1
     T71 1
     T72 1
     T73 1
     T74 1
     T75 1
     T76 2
     T77 2
     T78 1
     T79 1
     T80 1
     T81 1
     T82 1
     T83 1
     T84 1
     T85 1
     T86 1
     T87 1
     T88 2
     T89 2
     T90 2
     T91 2
     T92 2
     T93 2
     T94 1
     T95 2
     T96 2
     T97 2
     T98 2
     T99 1
     TB1 1
     TB2 1
     TB3 1
     TB4 1
     TB5 1
     TB6 1
     TB7 1
     TB8 1
     TB9 1
     TC7 1
     TC8 1
     TC9 1
     TN1 1
     TN2 1
     TN3 1
     TN4 1
     TN5 1
     TN6 1
     TN7 1
     TN9 1
     TP1 1
     TP2 1
     TP3 1
     TP4 1
     TP5 1
     TP6 1
     TP7 1
     TP8 1
     TP9 1
     TR1 1
     TR2 1
     TR3 1
     TR4 1
     TT1 1
     TT2 1
     TT3 1
     TT4 1
     TT5 1
     TT6 1
     TT7 1
     TT8 1
     TT9 1
     U   23
     U17 1
     U18 1
     U19 1
     U52 1
     U65 1
     U66 1
     U82 1
     UA0 1
     UB2 1
     UB3 1
     UB4 1
     UB5 1
     UB6 1
     UB7 1
     UB8 1
     UB9 1
     UDO 1
     UE0 1
     UF0 1
     UI0 1
     W10 1
     W11 1
     W12 1
     W13 1
     W14 1
     W15 1
     W16 1
     W17 1
     W18 1
     W19 1
     W20 1
     W21 1
     W22 1
     W23 1
     W24 1
     W25 1
     W26 1
     W27 1
     W28 1
     W29 1
     W30 1
     W31 1
     W32 1
     W33 1
     W34 1
     W35 1
     W36 1
     W37 1
     W38 1
     W39 1
     W41 1
     W42 1
     W43 1
     W44 1
     W45 1
     W46 1
     W47 1
     W48 1
     W49 1
     W51 1
     W52 1
     W53 1
     W54 1
     W55 1
     W56 1
     W57 1
     W58 1
     W59 1
     W60 1
     W61 1
     W62 1
     W63 1
     W64 1
     W65 1
     W66 1
     W67 1
     W68 1
     W69 1
     W70 1
     W71 1
     W73 1
     W74 1
     W75 1
     W76 1
     W77 1
     W78 1
     W79 1
     W81 1
     W82 1
     W83 1
     W84 1
     W85 1
     W86 1
     W87 1
     W88 1
     W89 1
     W90 1
     W91 1
     W92 1
     W94 1
     W95 1
     W96 1
     W98 1
     W99 1
     WB3 1
     WB4 1
     WB6 1
     WL1 1
     WL2 1
     WL3 1
     WL4 1
     WL5 1
     WL6 1
     WL7 1
     WL8 1
     WL9 1
     X15 1
     X4L 1
     Y43 1
     Z45 1
     m1  1
     m3  1
     m4  1
     m5  1
     m6  1
     m7  1
     m8  1
     m9  1
    0001 2
    0002 1
    0003 2
    0004 2
    0005 2
    0006 2
    0007 2
    0008 2
    0009 2
    0010 2
    0011 2
    0012 2
    0013 2
    0014 2
    0015 2
    0016 2
    0017 2
    0018 2
    0019 2
    0020 1
    0021 3
    0022 1
    0023 2
    0024 1
    0025 3
    0026 2
    0027 2
    0028 2
    0029 2
    0030 2
    0031 2
    0032 2
    0033 2
    0034 2
    0035 2
    0036 3
    0037 2
    0038 2
    0039 3
    0040 2
    0041 2
    0042 2
    0043 2
    0044 1
    0045 2
    0046 3
    0047 2
    0048 2
    0049 2
    0050 2
    0051 3
    0052 3
    0053 3
    0054 3
    0055 2
    0056 3
    0057 3
    0058 3
    0059 2
    0060 3
    0061 3
    0062 3
    0063 2
    0064 3
    0065 2
    0066 2
    0067 2
    0068 2
    0069 2
    0070 3
    0071 3
    0072 2
    0073 3
    0074 3
    0075 2
    0076 3
    0077 2
    0078 2
    0079 2
    0080 2
    0081 2
    0082 2
    0083 2
    0084 2
    0085 2
    0086 2
    0087 2
    0088 2
    0089 2
    0090 2
    0091 2
    0092 2
    0093 2
    0094 2
    0095 2
    0096 2
    0097 2
    0098 2
    0099 2
    00B1 1
    00B2 1
    00B3 1
    0100 2
    0101 2
    0102 2
    0103 2
    0104 2
    0105 2
    0106 2
    0107 2
    0108 2
    0109 2
    0110 2
    0111 2
    0112 2
    0113 2
    0114 2
    0115 2
    0116 2
    0117 2
    0118 1
    0119 2
    0120 2
    0121 2
    0122 2
    0123 2
    0124 2
    0125 2
    0126 2
    0127 2
    0128 2
    0129 2
    0130 2
    0131 2
    0132 2
    0133 2
    0134 2
    0135 2
    0136 2
    0137 2
    0138 2
    0139 2
    0140 2
    0141 2
    0142 2
    0143 2
    0144 2
    0145 2
    0146 2
    0147 2
    0148 2
    0149 2
    0150 2
    0151 2
    0152 2
    0153 2
    0154 2
    0155 2
    0156 2
    0157 2
    0158 2
    0159 2
    0160 2
    0161 2
    0162 2
    0163 2
    0164 2
    0165 2
    0166 2
    0167 2
    0168 2
    0169 1
    0170 2
    0171 2
    0172 2
    0173 2
    0174 2
    0175 2
    0176 2
    0177 2
    0178 2
    0179 2
    0180 2
    0181 2
    0182 2
    0183 2
    0184 2
    0185 1
    0186 1
    0187 2
    0188 2
    0189 2
    0190 2
    0191 2
    0192 2
    0193 2
    0194 2
    0195 2
    0196 2
    0197 2
    0198 2
    0199 2
    0200 2
    0201 2
    0202 2
    0203 2
    0204 2
    0205 2
    0206 2
    0207 2
    0208 2
    0209 2
    0210 2
    0211 2
    0212 2
    0213 2
    0214 2
    0215 2
    0216 2
    0217 2
    0218 2
    0219 2
    0220 2
    0221 2
    0222 2
    0223 1
    0224 2
    0225 2
    0226 2
    0227 2
    0228 2
    0229 2
    0230 2
    0231 2
    0232 2
    0233 2
    0234 2
    0235 2
    0236 2
    0237 2
    0238 2
    0239 2
    0240 2
    0241 2
    0242 2
    0243 2
    0244 2
    0245 2
    0246 2
    0247 2
    0248 2
    0249 2
    0250 2
    0251 2
    0252 2
    0253 2
    0254 2
    0255 2
    0256 2
    0257 2
    0258 2
    0259 2
    0260 2
    0261 1
    0262 1
    0263 1
    0264 2
    0265 2
    0266 2
    0267 2
    0268 2
    0269 2
    0270 2
    0271 2
    0272 2
    0273 2
    0274 2
    0275 2
    0276 2
    0277 2
    0278 2
    0279 2
    0280 2
    0281 2
    0282 2
    0283 2
    0284 2
    0285 2
    0286 2
    0287 2
    0288 2
    0289 2
    0290 1
    0291 1
    0292 1
    0293 2
    0294 1
    0295 2
    0296 2
    0297 2
    0298 2
    0299 2
    0300 2
    0301 2
    0302 2
    0303 2
    0304 2
    0305 2
    0306 2
    0307 2
    0308 2
    0309 2
    0310 2
    0311 2
    0312 2
    0313 2
    0314 2
    0315 2
    0316 2
    0317 2
    0318 2
    0319 2
    0320 2
    0321 2
    0322 2
    0323 2
    0324 2
    0325 2
    0326 2
    0327 1
    0328 1
    0329 1
    0330 1
    0331 1
    0332 1
    0333 1
    0334 1
    0335 1
    0336 1
    0337 1
    0338 1
    0339 1
    0340 1
    0341 1
    0342 1
    0343 1
    0344 1
    0345 1
    0346 1
    0347 1
    0348 1
    0349 1
    0350 1
    0351 1
    0352 1
    0353 1
    0354 1
    0355 1
    0356 1
    0357 1
    0358 1
    0359 1
    0360 1
    0361 1
    0362 1
    0363 1
    0364 1
    0365 1
    0366 1
    0367 1
    0368 1
    0369 1
    0370 1
    0371 1
    0372 1
    0373 1
    0374 1
    0375 1
    0376 1
    0377 1
    0378 1
    0379 1
    0380 1
    0382 1
    0383 1
    0384 1
    0385 1
    0386 1
    0387 1
    0388 1
    0389 1
    0390 1
    0391 1
    0392 1
    0393 1
    0394 1
    0395 1
    0396 1
    0397 1
    0398 1
    0399 1
    0400 1
    0401 1
    0402 1
    0403 1
    0404 1
    0405 1
    0406 1
    0407 1
    0408 1
    0409 1
    0410 1
    0411 1
    0412 1
    0413 1
    0414 1
    0415 1
    0416 1
    0417 1
    0418 1
    0419 1
    0420 1
    0421 1
    0422 1
    0423 1
    0424 1
    0425 1
    0426 1
    0427 1
    0428 1
    0429 1
    0430 1
    0431 1
    0432 1
    0433 1
    0434 1
    0435 1
    0436 1
    0437 1
    0488 1
    0489 1
    0490 1
    0491 1
    0492 1
    0493 1
    0494 1
    0495 1
    0523 1
    0533 1
    0534 1
    0535 1
    0536 1
    0537 1
    0538 1
    0539 1
    0540 1
    0541 1
    0542 1
    0543 1
    0544 1
    0545 1
    0546 2
    0547 2
    0548 2
    0549 2
    0550 2
    0551 2
    0552 2
    0553 2
    0554 2
    0555 2
    0556 2
    0557 2
    0558 2
    0559 2
    0560 2
    0561 2
    0562 2
    0563 2
    0564 1
    0565 2
    0566 1
    0567 2
    0568 1
    0569 1
    0570 2
    0571 2
    0572 1
    0573 2
    0574 2
    0575 1
    0576 2
    0577 2
    0578 2
    0579 2
    0581 1
    0582 1
    0583 1
    0584 2
    0585 1
    0586 2
    0587 2
    0588 2
    0589 2
    0590 2
    0591 1
    0592 2
    0593 2
    0594 2
    0595 2
    0596 2
    0597 2
    0598 2
    0599 2
    0600 2
    0601 2
    0602 2
    0603 2
    0604 1
    0605 2
    0606 2
    0607 2
    0608 2
    0609 1
    0610 2
    0611 2
    0612 1
    0613 2
    0614 2
    0615 2
    0616 2
    0617 2
    0618 2
    0619 2
    0620 2
    0621 2
    0622 1
    0623 1
    0624 1
    0625 1
    0626 1
    0627 1
    0628 1
    0629 1
    0630 1
    0631 1
    0632 1
    0633 2
    0634 2
    0635 2
    0636 2
    0637 2
    0638 2
    0639 2
    0640 2
    0641 2
    0642 2
    0643 2
    0644 2
    0645 2
    0646 2
    0647 2
    0648 1
    0649 2
    0650 2
    0651 2
    0652 2
    0653 1
    0654 1
    0655 1
    0656 2
    0657 2
    0658 2
    0659 2
    0660 2
    0661 2
    0662 2
    0663 2
    0664 2
    0665 2
    0666 2
    0667 2
    0668 2
    0669 2
    0670 2
    0671 2
    0672 2
    0673 2
    0674 2
    0675 2
    0676 2
    0677 2
    0678 2
    0679 2
    0680 2
    0681 3
    0682 2
    0683 2
    0684 2
    0685 2
    0686 2
    0687 2
    0688 2
    0689 2
    0690 2
    0691 2
    0692 2
    0693 2
    0694 2
    0695 1
    0696 2
    0697 2
    0698 2
    0699 2
    0700 2
    0701 2
    0702 2
    0703 2
    0704 2
    0705 2
    0706 2
    0707 2
    0708 2
    0709 2
    0710 2
    0711 2
    0712 2
    0713 2
    0714 2
    0715 2
    0716 2
    0717 2
    0718 2
    0719 2
    0720 2
    0721 2
    0722 2
    0723 2
    0724 2
    0725 2
    0726 2
    0727 2
    0728 2
    0729 1
    0730 2
    0731 1
    0732 2
    0733 2
    0734 2
    0735 2
    0736 2
    0737 2
    0738 2
    0739 1
    0744 1
    0745 1
    0747 1
    0749 1
    0750 1
    0751 1
    0752 1
    0753 1
    0754 1
    0755 1
    0756 2
    0757 1
    0758 1
    0759 1
    0760 1
    0761 1
    0762 1
    0763 1
    0764 1
    0765 1
    0766 1
    0768 1
    0769 1
    0770 1
    0771 1
    0772 1
    0773 1
    0774 1
    0775 1
    0776 1
    0777 1
    0778 1
    0779 1
    0780 1
    0781 1
    0782 1
    0783 1
    0784 1
    0785 1
    0786 1
    0787 1
    0788 1
    0789 1
    0790 1
    0791 1
    0792 1
    0793 1
    0794 1
    0795 1
    0796 1
    0797 1
    0798 1
    0799 1
    0800 1
    0801 1
    0802 1
    0803 1
    0804 1
    0805 1
    0806 1
    0807 1
    0808 1
    0809 1
    0810 1
    0811 1
    0812 1
    0813 1
    0814 1
    0815 1
    0816 1
    0817 1
    0818 1
    0819 1
    0820 1
    0821 1
    0822 1
    0823 1
    0824 1
    0826 1
    0827 1
    0828 1
    0829 1
    0830 1
    0831 1
    0832 1
    0833 1
    0834 1
    0835 1
    0836 1
    0837 1
    0838 1
    0839 1
    0840 1
    0841 1
    0842 1
    0843 1
    0844 1
    0845 1
    0846 1
    0848 1
    0849 1
    0850 1
    0851 1
    0852 1
    0853 1
    0854 1
    0855 1
    0856 1
    0857 1
    0858 1
    0859 1
    0900 1
    0901 1
    0902 1
    0903 1
    0904 1
    0905 1
    0906 1
    0907 1
    0908 1
    0909 1
    0C01 1
    0C02 1
    0C03 1
    0C04 1
    0C05 1
    0C07 1
    0C09 1
    0C10 1
    0C11 1
    0C12 1
    0C14 1
    0C15 1
    0C16 1
    0C17 1
    0C18 1
    0C23 1
    0C24 1
    0C26 1
    0C27 1
    0C28 1
    0C29 1
    0C30 1
    0C31 1
    0C32 1
    0C33 1
    0C35 1
    0C36 1
    0C37 1
    0C38 1
    0C39 1
    0C40 1
    0C41 1
    0C42 1
    0C43 1
    0C44 1
    0C46 1
    0C47 1
    0C49 1
    0C50 1
    0C51 1
    0C52 1
    0C53 1
    0C54 1
    0C55 1
    0C56 1
    0C57 1
    0C59 1
    0C60 1
    0C61 1
    0C62 1
    0C63 1
    0C64 1
    0C66 1
    0C67 1
    0C68 1
    0C69 1
    0C70 1
    0C71 1
    0C72 1
    0C73 1
    0C74 1
    0C75 1
    0C76 1
    0C77 1
    0C78 1
    0C79 1
    0C80 1
    0C81 1
    0C82 1
    0C83 1
    0C84 1
    0C85 1
    0C86 1
    0C87 1
    0C88 1
    0C89 1
    0C90 1
    0C92 1
    0C93 1
    0C96 1
    0C97 1
    0C98 1
    0C99 1
    0J62 1
    0W12 1
    0W13 1
    0W15 1
    0W17 1
    0W18 1
    0W21 1
    0W22 1
    0W23 1
    0W25 1
    0W26 1
    0W29 1
    0W30 1
    0W31 1
    0W33 1
    0W34 1
    0W35 1
    0W36 1
    0W38 1
    0W40 1
    0W42 1
    0W43 1
    0W45 1
    0W46 1
    0W47 1
    0W67 1
    0W68 1
    0W69 1
    0W70 1
    0W71 1
    0W74 1
    0W75 1
    0W76 1
    0W77 1
    0W78 1
    0W79 1
    0W80 1
    0W81 1
    0W82 1
    0W83 1
    0W84 1
    0W85 1
    0W87 1
    0W88 1
    0W89 1
    0W90 1
    0W92 1
    0W94 1
    0W95 1
    0W96 1
    0W97 1
    0W98 1
    0W99 1
    1    1
    1 RJ 1
    1-10 2
    1-11 2
    1-12 2
    1-13 2
    1-14 2
    1-15 2
    1-16 2
    1-17 2
    1-18 2
    1-19 2
    1-20 2
    1-21 2
    1-22 2
    1-23 2
    1-24 2
    1-25 2
    1-26 2
    1-27 2
    1-28 2
    1-29 2
    1-30 2
    1-31 2
    1-32 2
    10-1 1
    10-2 1
    10-4 1
    10-5 1
    10-6 1
    10-7 1
    10-8 1
    10-9 1
    100  1
    1001 1
    1002 1
    1004 1
    1006 1
    1009 1
    100L 1
    101  1
    1011 1
    1012 1
    1014 1
    1016 1
    1017 1
    1019 1
    101D 1
    101L 1
    102  1
    1020 1
    1022 1
    1024 2
    1025 2
    1026 2
    1027 2
    1028 1
    1029 2
    102D 1
    102L 1
    103  1
    1030 2
    1031 2
    1032 1
    1033 1
    1034 2
    1035 2
    1036 2
    1037 2
    1038 1
    1039 1
    103D 1
    103L 1
    104  1
    1040 2
    1041 2
    1042 1
    1043 1
    1044 2
    1045 1
    1046 1
    1047 1
    1048 2
    1049 1
    104A 1
    104B 1
    104C 1
    104D 2
    104E 1
    104F 1
    104G 1
    104H 1
    104I 1
    104J 1
    104K 1
    104L 1
    1050 2
    1051 2
    1052 2
    1053 1
    1054 2
    1056 1
    1058 2
    1059 1
    105B 1
    105D 1
    105K 1
    105L 2
    105M 1
    105N 1
    105U 1
    105V 1
    105W 1
    105X 1
    105Y 1
    105Z 1
    1060 2
    1061 1
    1062 2
    1063 2
    1064 1
    1065 1
    1066 2
    1067 1
    1068 1
    1069 1
    106D 1
    106L 1
    1070 2
    1071 1
    1072 1
    1073 1
    1074 2
    1075 1
    1076 2
    1077 2
    1078 1
    1079 1
    107D 1
    1080 1
    1081 2
    1082 1
    1083 1
    1084 1
    1085 2
    1086 1
    1087 1
    1088 1
    1089 1
    108D 1
    108L 1
    1090 1
    1091 1
    1092 1
    1093 1
    1094 1
    1095 1
    1096 1
    1097 1
    1098 1
    1099 1
    10G4 1
    11-1 1
    11-3 1
    11-5 1
    11-6 1
    1100 1
    1101 1
    1102 1
    1103 1
    1104 1
    1105 1
    1106 1
    1107 1
    1108 2
    1109 1
    110L 1
    111  1
    1110 1
    1111 2
    1112 1
    1113 2
    1114 2
    1115 1
    1116 1
    1117 2
    1118 2
    1119 1
    111L 1
    112  1
    1120 1
    1121 1
    1122 1
    1123 1
    1124 2
    1125 1
    1126 2
    1127 1
    1128 1
    1129 1
    112L 1
    1130 1
    1131 1
    1132 1
    1133 1
    1134 1
    1135 1
    1136 1
    1137 1
    1138 1
    1139 1
    1140 1
    1141 1
    1142 1
    1143 1
    1144 1
    1145 1
    1146 1
    1147 1
    1148 1
    1149 1
    115  1
    1150 1
    1151 1
    1152 1
    1153 1
    1154 1
    1155 1
    1156 1
    1157 1
    1158 1
    1159 1
    116  1
    1160 1
    1161 2
    1162 1
    1163 1
    1164 2
    1165 2
    1166 2
    1167 2
    1168 2
    1169 2
    117  2
    1170 2
    1171 2
    1172 2
    1173 2
    1174 2
    1175 2
    1176 2
    1177 2
    1178 2
    118  2
    1180 1
    1181 1
    1182 2
    1183 1
    1184 1
    1185 1
    1186 1
    1187 1
    1188 1
    1189 1
    119  2
    1190 1
    1191 1
    1192 1
    1193 1
    1194 1
    1195 1
    1196 1
    1197 2
    1198 1
    1199 1
    11G0 1
    12-1 1
    12-2 1
    120  1
    121  1
    122  2
    1221 1
    1229 1
    123  2
    1230 1
    1231 1
    1232 1
    1233 1
    1234 1
    1235 1
    1236 1
    1237 1
    1238 1
    1239 1
    124  1
    1240 1
    1241 1
    1242 1
    1243 1
    1244 1
    1245 1
    1246 1
    1247 1
    1248 1
    1249 1
    125  2
    1250 1
    1251 1
    1252 1
    1253 1
    1254 1
    1255 1
    1256 1
    1257 1
    1258 1
    1259 1
    126  2
    1260 1
    1261 1
    1262 1
    1263 1
    1264 1
    1265 1
    1266 1
    1267 1
    1268 1
    1269 1
    127  1
    1270 1
    1272 1
    1273 1
    1274 1
    1275 1
    1276 1
    1277 1
    1278 1
    1279 1
    128  1
    1280 1
    1281 1
    1282 1
    1283 1
    1284 1
    1285 1
    1286 1
    1287 1
    1288 1
    1289 1
    129  1
    1290 1
    1291 1
    1292 1
    1293 1
    1294 1
    1295 1
    1296 1
    1297 1
    1298 1
    1299 1
    12G5 1
    13   1
    13-6 1
    13-7 1
    13-8 1
    13-9 1
    130  1
    1300 1
    1301 1
    1302 1
    1303 1
    1304 1
    1305 1
    1306 2
    1307 2
    1308 2
    1309 2
    131  1
    1310 2
    1311 2
    1312 2
    1313 2
    1314 2
    1315 2
    1316 2
    1317 2
    1318 2
    1319 2
    132  1
    1320 1
    1321 1
    1322 1
    1323 1
    1324 2
    1325 2
    1326 1
    1327 1
    1328 1
    1329 1
    133  1
    1330 1
    1331 1
    1332 1
    1333 2
    1334 2
    1335 2
    1336 2
    1337 2
    1338 2
    1339 2
    134  1
    1340 2
    1341 2
    1342 2
    1343 2
    1344 2
    1345 2
    1346 2
    1347 2
    1348 2
    1349 2
    135  1
    1350 2
    1351 2
    1352 1
    1353 1
    1354 1
    1355 1
    1356 1
    1357 1
    1358 1
    1359 1
    136  1
    1360 1
    1361 1
    1362 2
    1363 2
    1364 2
    1365 2
    1366 2
    1367 2
    1368 2
    1369 2
    137  2
    1370 2
    1371 2
    1372 2
    1373 2
    1374 2
    1375 2
    1376 1
    1377 2
    1378 1
    1379 1
    138  2
    1380 1
    1381 1
    1382 1
    1383 2
    1384 1
    1385 1
    1386 1
    1387 1
    1388 1
    1389 2
    138A 1
    139  2
    1390 1
    1391 1
    1392 1
    1393 1
    1394 1
    1395 1
    1396 1
    1397 2
    1398 2
    1399 2
    13G2 1
    14-1 2
    14-2 2
    14-3 1
    14-4 1
    14-5 2
    14-6 1
    14-7 1
    14-8 1
    14-9 1
    140  2
    1400 1
    1401 1
    1402 1
    1403 1
    1404 1
    1405 1
    1406 1
    1407 1
    1408 1
    1409 1
    141  1
    1410 1
    1411 1
    1412 2
    1413 2
    1414 2
    1415 2
    1416 2
    1417 2
    1418 2
    1419 2
    142  1
    1420 2
    1421 2
    1422 1
    1423 1
    1424 1
    1425 1
    1426 1
    1427 2
    1428 1
    1429 1
    143  1
    1430 1
    1431 2
    1432 1
    1433 1
    1434 1
    1435 1
    1436 1
    1437 1
    1438 1
    1439 1
    144  1
    1440 1
    1441 2
    1442 2
    1443 1
    1444 1
    1445 1
    1446 1
    1447 1
    1448 2
    1449 1
    145  1
    1450 1
    1451 1
    1452 1
    1453 1
    1454 1
    1455 1
    1456 1
    1457 1
    1458 1
    1459 1
    146  1
    1460 1
    1461 1
    1462 1
    1463 1
    1464 1
    1465 1
    1466 1
    1467 1
    1468 1
    1469 1
    147  1
    1470 2
    1471 1
    1472 1
    1473 1
    1474 1
    1475 1
    1476 1
    1477 1
    1478 2
    1479 1
    148  1
    1480 1
    1481 2
    1482 1
    1483 1
    1484 1
    1485 1
    1486 1
    1487 1
    1488 2
    1489 1
    149  1
    1490 1
    1491 1
    1492 1
    1493 1
    1494 1
    1495 1
    1496 1
    1497 1
    1498 1
    1499 1
    14G6 1
    15-1 1
    15-2 1
    15-3 1
    15-5 1
    150  1
    1500 1
    1501 1
    1502 2
    1503 1
    1504 1
    1505 1
    1506 2
    1507 1
    1508 1
    1509 1
    151  1
    1510 1
    1511 1
    1512 1
    1513 1
    1514 2
    1515 1
    1516 1
    1517 2
    1518 2
    1519 2
    152  1
    1520 2
    1521 2
    1522 2
    1523 2
    1524 2
    1525 2
    1526 2
    1527 2
    1528 2
    1529 2
    153  1
    1530 2
    1531 2
    1532 2
    1533 2
    1534 2
    1535 2
    1536 2
    1537 2
    1538 2
    1539 1
    153A 1
    154  1
    1540 1
    1541 1
    1542 1
    1543 1
    1544 1
    1545 2
    1546 2
    1547 2
    1548 2
    1549 2
    155  1
    1550 2
    1551 2
    1552 2
    1553 2
    1554 2
    1555 2
    1556 2
    1557 2
    1558 2
    1559 2
    156  1
    1560 2
    1561 2
    1562 2
    1563 2
    1564 2
    1565 2
    1566 2
    1567 2
    1568 2
    1569 2
    157  1
    1570 2
    1571 2
    1572 2
    1573 2
    1574 2
    1575 2
    1576 2
    1577 2
    1578 2
    1579 2
    158  2
    1580 2
    1581 2
    1582 2
    1583 2
    1584 2
    1585 2
    1586 2
    1587 2
    1588 2
    1589 2
    158A 1
    159  2
    1590 2
    1591 2
    1592 2
    1593 2
    1594 2
    1595 2
    1596 2
    1597 2
    1598 2
    1599 2
    15G3 1
    16-1 1
    16-2 1
    16-3 1
    16-4 1
    16-5 2
    16-6 1
    16-7 2
    16-8 2
    16-9 1
    160  1
    1600 2
    1601 2
    1602 2
    1603 2
    1604 2
    1605 2
    1606 2
    1607 2
    1608 2
    1609 2
    161  1
    1610 1
    1611 1
    1612 1
    1613 2
    1614 1
    1615 1
    1616 1
    1617 1
    1618 1
    1619 1
    161A 1
    162  1
    1620 1
    1621 1
    1622 1
    1623 1
    1624 1
    1625 1
    1626 1
    1627 1
    1628 1
    1629 2
    162A 1
    163  1
    1630 1
    1631 1
    1632 1
    1633 2
    1634 1
    1635 1
    1636 2
    1637 2
    1638 2
    1639 2
    163A 1
    164  1
    1640 2
    1641 2
    1642 2
    1643 2
    1644 2
    1645 2
    1646 2
    1647 1
    1648 1
    1649 2
    164A 1
    165  1
    1650 2
    1651 2
    1652 2
    1653 2
    1654 2
    1655 2
    1656 2
    1657 2
    1658 2
    1659 2
    166  1
    1660 1
    1661 2
    1662 2
    1663 2
    1664 2
    1665 2
    1666 2
    1667 2
    1668 2
    1669 2
    167  2
    1670 2
    1671 2
    1672 2
    1673 2
    1674 2
    1675 2
    1676 2
    1677 2
    1678 2
    1679 2
    168  1
    1680 2
    1681 2
    1682 2
    1683 2
    1684 2
    1685 2
    1686 2
    1687 2
    1688 2
    1689 2
    169  2
    1690 2
    1691 2
    1692 2
    1693 2
    1694 2
    1695 2
    1696 2
    1697 2
    1698 2
    1699 2
    16G9 1
    17-1 1
    17-2 1
    17-3 1
    17-4 1
    17-6 1
    17-7 1
    17-8 1
    170  2
    1700 2
    1701 2
    1702 2
    1703 2
    1704 2
    1705 2
    1706 2
    1707 2
    1708 2
    1709 1
    171  2
    1710 2
    1711 2
    1712 2
    1713 2
    1714 2
    1715 2
    1716 2
    1717 2
    1718 2
    1719 1
    172  1
    1720 2
    1721 2
    1722 2
    1723 2
    1724 2
    1725 2
    1726 2
    1727 2
    1728 2
    1729 2
    173  2
    1730 2
    1731 2
    1732 2
    1733 2
    1734 2
    1735 2
    1736 2
    1737 2
    1738 2
    1739 2
    174  1
    1740 2
    1741 2
    1742 2
    1743 2
    1744 2
    1745 2
    1746 2
    1747 2
    1748 2
    1749 2
    1750 2
    1751 2
    1752 2
    1753 2
    1754 2
    1755 2
    1756 2
    1757 2
    1758 2
    1759 2
    176  1
    1760 2
    1761 2
    1762 2
    1763 2
    1764 2
    1765 2
    1766 2
    1767 2
    1768 2
    1769 2
    177  1
    1770 2
    1771 2
    1772 2
    1773 2
    1774 1
    1775 1
    1776 1
    1777 1
    1778 1
    1779 1
    1780 1
    1782 1
    1783 1
    1784 1
    1785 1
    1786 1
    1787 1
    1788 1
    1789 1
    179  1
    1790 1
    1791 1
    1792 1
    1793 1
    1794 1
    1795 2
    1796 1
    1797 1
    1798 1
    1799 1
    17G0 1
    18-1 1
    18-2 1
    18-3 1
    18-4 1
    18-5 1
    18-6 1
    18-8 1
    180  1
    1800 1
    1801 2
    1802 1
    1803 2
    1804 1
    1805 2
    1806 1
    1807 1
    1808 1
    1809 1
    181  1
    1810 1
    1811 1
    1812 2
    1813 2
    1814 1
    1815 2
    1816 2
    1817 2
    1818 2
    1819 2
    182  1
    1820 2
    1821 2
    1822 2
    1823 2
    1824 2
    1825 2
    1826 2
    1827 2
    1828 2
    1829 2
    183  1
    1830 2
    1831 2
    1832 2
    1833 2
    1834 2
    1835 2
    1836 2
    1837 2
    1838 1
    1839 1
    184  1
    1840 1
    1841 1
    1842 2
    1843 2
    1844 2
    1845 2
    1846 2
    1847 2
    1848 2
    1849 2
    1850 2
    1851 2
    1852 2
    1853 2
    1854 2
    1855 2
    1856 2
    1857 2
    1858 2
    1859 2
    186  1
    1860 2
    1861 2
    1862 2
    1863 2
    1864 1
    1865 1
    1866 1
    1867 1
    1868 1
    1869 1
    187  1
    1870 1
    1871 1
    1873 2
    1874 1
    1875 1
    1876 1
    1877 2
    1878 1
    1879 2
    188  1
    1880 2
    1881 2
    1882 2
    1883 2
    1884 2
    1885 2
    1886 2
    1887 2
    1888 2
    1889 2
    1890 2
    1891 2
    1892 2
    1893 2
    1894 2
    1895 2
    1896 2
    1897 2
    1898 2
    1899 2
    18G2 1
    19-2 1
    19-3 1
    19-4 1
    19-5 1
    1900 2
    1901 2
    1902 2
    1903 2
    1904 2
    1905 2
    1906 2
    1907 2
    1908 2
    1909 2
    1910 2
    1911 2
    1912 2
    1913 2
    1914 2
    1915 2
    1916 2
    1917 2
    1918 2
    1919 2
    1920 2
    1921 2
    1922 2
    1923 2
    1924 2
    1925 2
    1926 2
    1927 2
    1928 2
    1929 2
    1930 2
    1931 2
    1932 2
    1933 2
    1934 2
    1935 2
    1936 2
    1937 2
    1938 2
    1939 2
    1940 2
    1941 2
    1942 2
    1943 2
    1944 2
    1945 2
    1946 2
    1947 2
    1948 2
    1949 2
    1950 2
    1951 2
    1952 2
    1953 2
    1954 2
    1955 2
    1956 2
    1957 1
    1958 1
    1959 1
    1960 1
    1961 1
    1962 2
    1963 2
    1964 2
    1965 2
    1966 2
    1967 2
    1968 2
    1969 2
    1970 2
    1971 2
    1972 1
    1973 1
    1974 1
    1980 1
    1981 1
    1982 1
    1983 1
    1984 1
    1985 1
    1986 1
    1987 1
    1988 1
    1989 2
    1990 2
    1991 1
    1992 1
    1993 1
    1994 1
    1995 1
    1996 1
    1997 1
    1998 1
    1999 1
    19G3 1
    2    1
    2 RJ 1
    2-10 2
    2-11 2
    2-12 2
    2-13 2
    2-14 2
    2-15 2
    2-16 2
    2-17 2
    2-18 2
    2-19 2
    2-20 2
    2-21 2
    2-22 2
    2-23 2
    2-24 2
    2-25 2
    2-26 2
    2-27 2
    2-28 2
    2-29 2
    2-30 2
    2-31 2
    2-32 2
    2-33 2
    2-34 2
    2-35 2
    2-36 2
    20-1 2
    20-2 2
    20-3 2
    20-4 2
    20-5 2
    20-6 2
    20-7 2
    20-8 2
    20-9 2
    2000 1
    2001 1
    2002 2
    2003 1
    2004 1
    2005 2
    2006 2
    2007 1
    2008 1
    2009 1
    2010 1
    2011 1
    2012 1
    2013 1
    2014 2
    2015 2
    2016 2
    2017 2
    2018 2
    2019 2
    2020 1
    2021 2
    2022 1
    2023 1
    2024 2
    2025 2
    2026 2
    2027 2
    2028 2
    2029 2
    2030 2
    2031 2
    2032 2
    2033 2
    2034 2
    2035 2
    2036 2
    2037 2
    2038 2
    2039 2
    2040 2
    2041 2
    2042 2
    2043 2
    2044 2
    2045 2
    2046 2
    2047 2
    2048 2
    2049 2
    2050 1
    2051 1
    2052 1
    2053 1
    2054 1
    2055 1
    2056 1
    2057 1
    2058 1
    2059 1
    205F 1
    2060 1
    2061 1
    2062 1
    2064 1
    2065 1
    2066 1
    2067 1
    2068 1
    2069 1
    2070 1
    2071 1
    2072 1
    2073 1
    2074 1
    2075 1
    2076 1
    2077 1
    2078 2
    2079 1
    2080 1
    2081 1
    2082 1
    2083 1
    2084 1
    2085 1
    2086 2
    2087 1
    2088 1
    2089 2
    2090 2
    2091 2
    2092 2
    2093 2
    2094 2
    2095 2
    2096 2
    2097 2
    2098 2
    2099 2
    20G4 1
    21-1 1
    21-2 1
    21-3 1
    21-4 1
    21-5 1
    21-6 1
    21-7 1
    21-8 1
    21-9 1
    2100 2
    2101 2
    2102 2
    2103 1
    2104 1
    2105 1
    2106 1
    2107 1
    2108 1
    2109 2
    2110 2
    2111 2
    2112 2
    2113 2
    2114 2
    2115 2
    2116 2
    2117 2
    2118 3
    2119 3
    2120 3
    2121 2
    2122 2
    2123 2
    2124 1
    2125 1
    2126 1
    2127 1
    2128 1
    2129 1
    2135 1
    2136 1
    2137 1
    2138 1
    2139 1
    2140 1
    2141 1
    2143 2
    2144 1
    2145 2
    2146 1
    2147 1
    2148 1
    2149 1
    2150 1
    2151 1
    2152 1
    2153 1
    2154 1
    2155 1
    2156 1
    2157 1
    2158 1
    2159 1
    2160 1
    2161 1
    2162 1
    2163 1
    2164 1
    2165 1
    2166 1
    2167 1
    2168 1
    2169 1
    2170 1
    2171 1
    2172 1
    2173 1
    2174 1
    2175 1
    2176 1
    2177 1
    2178 1
    2179 1
    2180 1
    2181 1
    2182 1
    2183 2
    2184 2
    2185 2
    2186 1
    2187 1
    2188 1
    2189 2
    2190 2
    2191 2
    2192 2
    2193 2
    2194 2
    2195 2
    2196 2
    2197 2
    2198 2
    2199 2
    21G5 1
    22-1 2
    22-2 2
    22-3 2
    22-4 2
    22-5 2
    22-6 2
    22-7 2
    22-8 2
    22-9 2
    2200 2
    2201 2
    2202 1
    2203 1
    2204 1
    2205 1
    2206 2
    2207 2
    2208 2
    2209 2
    2210 2
    2211 2
    2212 2
    2213 2
    2214 1
    2215 1
    2216 1
    2217 1
    2218 1
    2219 1
    2220 1
    2221 2
    2222 1
    2223 2
    2224 1
    2225 1
    2226 1
    2227 1
    2228 2
    2229 2
    2230 2
    2231 2
    2232 2
    2233 2
    2234 2
    2235 2
    2236 2
    2237 2
    2238 1
    2239 1
    2240 1
    2241 1
    2242 1
    2243 1
    2244 1
    2245 1
    2246 1
    2247 1
    2248 1
    2249 2
    2250 2
    2251 2
    2252 2
    2253 2
    2254 2
    2255 2
    2256 1
    2257 1
    2258 1
    2259 1
    228  1
    229  1
    2290 1
    2291 1
    2292 1
    2293 1
    2294 2
    2295 1
    2296 1
    2297 1
    2298 1
    2299 1
    22G6 1
    230  1
    2300 1
    2301 1
    2302 1
    2303 1
    2304 1
    2305 1
    2306 1
    2307 1
    2308 1
    2309 1
    231  1
    2310 1
    2311 2
    2312 2
    2314 1
    2316 1
    2317 1
    2318 1
    2319 1
    232  1
    2320 1
    2321 1
    2322 1
    2323 1
    2324 1
    2325 1
    2326 1
    2327 2
    2328 2
    2329 2
    233  1
    2330 2
    2331 2
    2332 2
    2333 2
    2334 2
    2335 2
    2336 2
    2338 1
    2339 1
    234  1
    2340 1
    2341 1
    2342 1
    2343 1
    2344 1
    2345 1
    2346 1
    2347 1
    2348 1
    2349 1
    2350 1
    2351 1
    2352 1
    2353 1
    2354 1
    2355 1
    2356 1
    2357 1
    2358 1
    2359 1
    236  1
    2360 1
    2361 1
    2362 1
    237  2
    2370 1
    2371 1
    2372 1
    237F 1
    239  1
    240  1
    241  1
    242  2
    243  2
    244  1
    2448 1
    2449 1
    244F 1
    245  1
    2450 1
    2451 1
    2452 1
    2453 1
    2454 1
    2455 1
    2456 1
    2457 1
    2458 1
    2459 1
    246  1
    2460 1
    2461 1
    2462 1
    2463 1
    2464 1
    2465 1
    2466 1
    2467 1
    2468 1
    2469 2
    2470 2
    2471 2
    2472 2
    2473 2
    2474 1
    2475 1
    2476 1
    2477 1
    2478 1
    2479 1
    247F 1
    2480 1
    2481 1
    2482 1
    2483 1
    2484 1
    2485 2
    2486 2
    2487 1
    2488 1
    2489 1
    2490 1
    2491 1
    2492 1
    2493 1
    2494 2
    2495 1
    2496 1
    2497 1
    2498 2
    2499 1
    250  1
    2500 2
    2501 1
    2502 2
    2503 2
    2504 1
    2505 1
    2506 1
    2507 1
    2508 1
    2509 1
    251  1
    2510 1
    2512 1
    2513 1
    2514 1
    2515 1
    2516 1
    2517 1
    2518 1
    2519 1
    2520 1
    2521 1
    2522 1
    2523 1
    2524 1
    2525 1
    2526 1
    2527 1
    2528 1
    2529 1
    2530 1
    2531 1
    2532 1
    2533 1
    2534 1
    2535 1
    2536 1
    2537 1
    2538 1
    2539 1
    254  1
    2540 1
    2541 1
    2542 1
    2543 1
    2544 1
    2545 1
    2546 1
    2547 1
    2548 1
    2549 1
    255  1
    2550 1
    2551 1
    2552 1
    2553 1
    2554 1
    2555 1
    2556 1
    2557 1
    2558 1
    2559 1
    256  1
    2560 1
    2561 1
    2562 1
    2564 1
    2565 1
    2566 1
    2567 1
    2568 1
    2569 1
    257  1
    2570 1
    2571 1
    2572 1
    2573 1
    2574 1
    2575 1
    2576 1
    2577 1
    2578 1
    2579 1
    258  1
    2580 1
    2581 1
    2582 1
    2583 1
    2584 1
    2585 1
    2586 2
    2587 1
    2588 1
    2589 2
    259  1
    2590 1
    2591 2
    2592 2
    2593 2
    2594 3
    2595 2
    2596 2
    2597 1
    2598 1
    2599 2
    260  2
    2600 1
    2601 2
    2602 1
    2603 1
    2604 1
    2605 2
    2606 1
    2607 1
    2608 1
    2609 1
    261  1
    2610 1
    2611 2
    2612 1
    2613 2
    2614 1
    2615 2
    2616 2
    2617 2
    2618 2
    2619 2
    262  1
    2620 2
    2621 2
    2622 2
    2623 2
    2624 2
    2625 3
    2626 2
    2627 2
    2628 1
    2629 1
    263  2
    2630 1
    2631 1
    2632 1
    2633 1
    2634 1
    2635 1
    2636 1
    2637 1
    2638 1
    2639 1
    264  2
    2640 1
    2641 2
    2642 1
    2643 2
    2644 1
    2645 1
    2646 1
    2647 1
    2648 1
    2649 1
    265  1
    2650 1
    2651 1
    2652 1
    2653 2
    2654 2
    2655 2
    2656 1
    2657 2
    2658 1
    2659 1
    266  1
    2660 2
    2661 2
    2662 2
    2663 1
    2664 2
    2665 2
    2666 1
    2667 1
    2668 1
    2669 2
    267  1
    2670 1
    2671 1
    2672 1
    2673 2
    2674 1
    2675 2
    2676 1
    2677 2
    2678 1
    2679 1
    268  1
    2680 1
    2681 1
    2682 1
    2683 1
    2684 1
    2685 1
    2686 1
    2687 1
    2688 1
    2689 1
    269  1
    2690 1
    2691 1
    2692 1
    2693 1
    2694 1
    2695 2
    2696 1
    2697 2
    2698 1
    2699 1
    270  2
    2700 1
    2701 1
    2702 2
    2703 2
    2704 2
    2705 1
    2706 2
    2707 1
    2708 1
    2709 2
    2710 1
    2711 1
    2712 1
    2713 1
    2714 1
    2715 2
    2716 1
    2717 1
    2718 1
    2719 2
    272  1
    2720 1
    2721 1
    2722 1
    2723 1
    2724 2
    2725 2
    2726 1
    2727 2
    2728 2
    2729 1
    2730 2
    2731 2
    2732 2
    2733 2
    2734 2
    2735 1
    2736 2
    2737 1
    2738 1
    2739 1
    2740 1
    2741 2
    2742 2
    2743 1
    2744 1
    2745 1
    2746 2
    2748 1
    2749 1
    275  1
    276  1
    277  1
    2772 1
    2774 1
    2775 1
    2776 1
    278  1
    2780 2
    2781 1
    2782 2
    2783 2
    2784 1
    2785 1
    2786 1
    2787 1
    2788 1
    2789 1
    279  1
    2790 1
    2791 1
    2792 1
    2793 2
    2794 1
    2795 2
    2796 2
    2797 2
    2798 1
    280  1
    2800 2
    2801 2
    2802 2
    2803 2
    2804 2
    2805 2
    2806 3
    2807 1
    2808 2
    2809 2
    281  1
    2810 2
    2811 3
    2812 3
    2813 3
    2814 3
    2815 2
    2816 3
    2817 3
    2818 3
    2819 3
    2820 2
    2821 3
    2822 2
    2823 3
    2824 3
    2825 3
    2826 2
    2827 1
    2828 2
    2829 1
    2830 1
    2831 1
    2832 2
    2833 2
    2834 2
    2835 2
    2836 2
    2837 2
    2838 2
    2839 2
    2840 2
    2841 2
    2842 2
    2843 1
    2844 2
    2845 1
    2846 1
    2847 1
    2848 1
    2849 1
    2850 1
    2851 1
    2852 1
    2853 2
    2856 1
    2859 1
    2860 1
    2865 1
    2866 2
    2868 1
    2869 1
    2870 1
    2871 1
    2875 1
    2876 2
    2877 1
    2878 1
    2879 1
    2880 1
    2884 1
    2887 1
    2890 1
    2899 1
    2902 1
    2903 1
    2904 1
    2905 1
    2906 2
    2907 1
    2908 2
    2909 1
    2910 2
    2911 2
    2912 1
    2913 2
    2914 1
    2915 2
    2916 1
    2917 1
    2918 1
    2919 1
    2920 1
    2921 2
    2922 2
    2923 1
    2924 2
    2925 1
    2926 1
    2927 2
    2928 1
    2929 1
    293  1
    2930 1
    2931 1
    2932 1
    2933 2
    2934 2
    2935 2
    2936 1
    2937 2
    2938 2
    2939 1
    294  1
    2941 2
    2942 1
    2943 1
    2944 1
    2945 1
    2946 1
    2947 1
    2948 1
    2949 2
    295  1
    2950 1
    2951 1
    2952 1
    2953 1
    2954 1
    2956 1
    2958 1
    296  1
    2961 1
    2962 1
    2963 1
    2966 1
    2967 1
    2969 1
    297  1
    2970 1
    2973 1
    2974 1
    2975 1
    2976 1
    2977 1
    2978 2
    2979 2
    298  1
    2980 1
    2981 2
    2982 1
    2983 2
    2984 2
    2985 2
    2986 1
    2987 2
    2988 2
    2989 1
    299  1
    2990 1
    2991 2
    2992 2
    2993 2
    2994 2
    2995 1
    2996 2
    2997 1
    2998 2
    2999 1
    2BM  1
    2G16 1
    3    1
    3 RJ 1
    3-10 2
    3-11 2
    3-12 2
    3-13 1
    3-14 2
    3-15 2
    3-16 2
    3-17 2
    3-18 2
    3-19 2
    3-20 2
    3-21 2
    3-22 2
    3-23 2
    3-24 2
    3-25 2
    3-26 2
    3-27 2
    3-28 2
    3-29 2
    3-30 2
    3-31 2
    3-32 2
    3-33 2
    3-34 2
    3-35 2
    3-36 2
    3-37 2
    3-38 2
    3-39 2
    3-40 2
    3-41 2
    3-42 2
    3-43 2
    3-44 2
    3-45 2
    3-46 2
    3-47 2
    3-48 2
    3-49 2
    3000 1
    3001 2
    3002 1
    3003 3
    3004 2
    3005 1
    3006 2
    3007 1
    3009 2
    3010 1
    3011 1
    3013 1
    3014 1
    3015 1
    3017 1
    302  1
    3021 1
    3024 1
    3026 1
    3027 1
    3028 2
    3029 1
    3030 2
    3032 1
    3033 1
    3034 1
    3036 1
    3037 1
    3038 1
    3039 1
    3040 1
    3041 1
    3042 1
    3043 1
    3044 1
    3045 1
    3046 1
    3047 1
    3048 1
    305  1
    3052 1
    3059 1
    306  1
    3060 1
    3061 1
    3064 1
    3065 1
    3066 1
    3067 1
    307  1
    3070 1
    3073 1
    3077 1
    3078 1
    308  1
    3085 1
    3086 1
    3088 1
    3091 1
    3095 1
    3097 1
    3098 1
    3101 1
    3104 1
    3108 1
    312  1
    3123 1
    3126 1
    313  1
    314  1
    3143 1
    3146 1
    3148 1
    315  1
    3150 1
    3153 1
    3154 1
    3155 2
    3156 1
    3157 2
    3158 1
    3159 1
    316  1
    3160 2
    3161 1
    3162 2
    3163 1
    3164 1
    3165 1
    3166 1
    3167 1
    3168 1
    3169 1
    317  1
    3170 1
    3171 1
    3172 1
    3173 1
    3174 1
    3175 1
    3176 2
    3177 2
    3178 1
    3179 1
    318  1
    3180 1
    3181 1
    3182 1
    3183 1
    3184 1
    3185 1
    3186 2
    319  1
    3196 1
    3198 1
    3199 1
    320  1
    321  1
    3215 1
    322  1
    323  1
    3234 1
    3237 1
    3238 1
    324  1
    3240 1
    326  1
    3277 1
    328  1
    3285 1
    3286 1
    3287 1
    3288 1
    3289 1
    329  1
    3290 1
    3291 1
    3292 1
    3293 1
    3294 1
    3295 1
    3296 1
    3297 1
    3298 1
    3299 1
    330  1
    3300 1
    3301 1
    3302 1
    3303 1
    3304 1
    3305 1
    3306 1
    3307 1
    3308 1
    3309 1
    331  1
    3310 1
    3311 1
    3312 1
    3313 1
    3314 1
    3315 1
    3316 1
    3317 1
    3318 1
    3319 1
    332  1
    3320 1
    3321 1
    3322 1
    3323 1
    3324 1
    3325 1
    3326 1
    3327 1
    3328 1
    3329 1
    333  1
    3330 1
    3331 1
    3332 1
    3333 1
    3334 1
    3335 1
    3336 1
    3337 1
    3338 1
    3339 1
    334  1
    3340 1
    3341 1
    3342 1
    3343 1
    3344 1
    3345 1
    3346 1
    3347 1
    3348 1
    3349 1
    335  1
    3350 1
    3351 1
    3352 1
    3353 1
    3354 1
    3355 1
    3356 1
    3357 1
    3358 1
    3359 1
    336  1
    3360 1
    337  1
    338  1
    339  1
    3390 1
    340  1
    341  2
    342  1
    343  2
    344  2
    3446 1
    3447 1
    3448 1
    3449 1
    345  2
    3450 1
    3451 1
    3452 1
    3453 1
    3454 1
    3455 1
    3456 1
    3457 1
    3458 1
    3459 1
    346  2
    3460 1
    347  2
    348  2
    349  2
    350  2
    3504 1
    3505 1
    3506 1
    3507 1
    3508 1
    3509 2
    351  2
    3510 1
    3511 1
    3512 1
    3513 1
    3514 1
    3515 1
    3516 1
    3517 1
    3518 1
    3519 1
    352  2
    3520 1
    3521 1
    3522 1
    3523 1
    3524 1
    3525 1
    3526 1
    3527 1
    3528 2
    3529 1
    353  1
    3530 1
    3531 1
    3532 1
    3533 1
    3534 1
    3535 1
    3536 1
    3537 1
    3538 1
    3539 1
    354  2
    3540 1
    3541 1
    3542 1
    3543 1
    3544 1
    3545 1
    3546 1
    3547 1
    3548 1
    3549 1
    355  2
    3550 1
    3551 1
    3552 1
    3553 1
    3554 1
    3555 1
    3556 1
    3557 1
    3558 1
    3559 1
    356  2
    3560 1
    3561 1
    3562 1
    3563 1
    3564 1
    3565 1
    3566 1
    3567 1
    3568 1
    3569 1
    357  2
    3570 1
    3571 1
    3572 1
    3573 1
    3574 1
    3575 1
    3576 1
    3577 1
    3578 1
    3579 1
    358  2
    359  2
    360  2
    361  2
    3612 1
    3616 1
    3617 1
    3619 1
    362  2
    3620 1
    3625 1
    3626 1
    3627 1
    3628 1
    3629 1
    363  2
    3631 1
    3632 1
    3634 1
    3636 1
    3637 1
    3638 1
    364  2
    3641 1
    3642 1
    3643 1
    3644 1
    3645 1
    3647 1
    3648 1
    365  2
    3650 1
    3651 1
    3652 1
    3653 1
    3655 1
    3656 1
    366  2
    367  2
    3673 1
    3674 1
    3675 1
    3676 1
    3677 1
    3679 1
    368  2
    3686 1
    369  2
    3693 1
    3699 1
    370  2
    371  2
    372  2
    3721 1
    3724 1
    3726 1
    3729 1
    373  1
    3730 1
    3736 1
    374  1
    3743 1
    375  1
    376  1
    3764 1
    3765 1
    377  1
    378  1
    379  1
    3793 1
    3794 1
    3795 1
    3796 1
    3797 1
    3798 1
    3799 1
    380  1
    3800 1
    3801 2
    3802 2
    3803 2
    3804 1
    3805 2
    3806 1
    3807 2
    3808 2
    3809 2
    381  1
    3810 1
    3811 2
    3812 1
    3813 2
    3814 2
    3815 2
    3816 1
    3817 2
    3818 2
    3819 1
    382  1
    3820 2
    3821 2
    3822 2
    3823 2
    3824 2
    3825 2
    3826 2
    3827 1
    3828 1
    3829 2
    383  2
    3830 1
    3831 2
    3832 2
    3833 2
    3834 2
    3835 2
    3836 1
    3837 2
    3838 2
    3839 2
    384  1
    3840 2
    3841 1
    3842 1
    3843 1
    3844 1
    3845 1
    3846 1
    3847 2
    3848 2
    3849 2
    385  2
    3850 1
    3851 1
    3852 1
    3853 1
    3854 1
    3855 1
    3856 2
    3857 1
    3858 2
    3859 2
    386  2
    3860 2
    3861 2
    3862 1
    3863 2
    3864 2
    3865 1
    3866 2
    3867 2
    3868 2
    3869 1
    387  2
    3870 1
    3871 2
    3872 1
    3873 2
    3874 1
    3875 1
    3876 2
    3877 1
    3878 2
    3879 2
    388  2
    3880 1
    3881 2
    3882 1
    3883 1
    3884 2
    3885 1
    3886 2
    3887 1
    3888 1
    3889 1
    389  2
    3890 1
    3891 1
    3892 1
    3893 1
    3894 1
    3895 1
    3896 2
    3897 1
    3898 1
    3899 2
    389A 1
    390  2
    3900 1
    3901 2
    3902 1
    3903 2
    3904 2
    3905 1
    3906 2
    3907 1
    3908 2
    3909 1
    391  2
    3910 1
    3911 1
    3912 1
    3913 1
    3914 2
    3915 1
    3916 2
    3917 1
    3918 2
    3919 1
    392  1
    3920 2
    3921 1
    3922 1
    3923 2
    3924 1
    3925 2
    3926 1
    3927 2
    3928 2
    3929 1
    393  1
    3930 1
    3931 2
    3932 2
    3933 1
    3935 1
    3936 2
    3937 1
    3938 2
    3939 1
    394  1
    3940 2
    3941 2
    3942 2
    3943 1
    3944 2
    3945 1
    3946 2
    3947 1
    3948 2
    3949 1
    395  1
    3950 1
    3951 2
    3953 1
    3954 1
    3955 3
    3956 1
    3957 1
    3958 2
    3959 1
    396  1
    3960 1
    3961 2
    3962 1
    3963 2
    3964 1
    3965 2
    3966 1
    3967 2
    3968 1
    3969 1
    397  1
    3970 1
    3971 1
    3972 2
    3974 2
    3975 1
    3976 2
    3977 2
    3978 1
    3979 2
    398  1
    3980 1
    3981 1
    3982 2
    3983 1
    3984 2
    3985 1
    3986 2
    3987 1
    3988 1
    3989 2
    399  2
    3990 1
    3991 1
    3992 2
    3993 2
    3994 2
    3995 1
    3996 1
    3997 1
    3998 1
    3999 1
    3BM  1
    3G15 1
    3GT  1
    4    1
    4 RJ 1
    4-10 2
    4-11 2
    4-12 2
    4-13 2
    4-14 2
    4-15 2
    4-16 2
    4-17 2
    4-18 2
    4-19 2
    400  2
    4000 1
    4001 1
    4002 2
    4003 2
    4004 1
    4005 1
    4006 2
    4007 1
    4008 2
    4009 1
    401  2
    4010 1
    4011 2
    4012 2
    4013 1
    4014 1
    4015 2
    4016 1
    4018 2
    4019 1
    402  2
    4020 2
    4021 1
    4022 1
    4023 1
    4024 2
    4025 1
    4026 2
    4027 1
    4028 2
    4029 1
    403  2
    4030 2
    4031 1
    4032 1
    4033 2
    4034 1
    4036 2
    4037 1
    4039 1
    404  2
    4040 2
    4042 2
    4043 2
    4044 2
    4045 1
    4046 2
    4047 2
    4048 2
    4049 1
    405  2
    4051 2
    4052 1
    4053 1
    4054 1
    4055 2
    4056 1
    4057 2
    4058 2
    4059 3
    406  2
    4060 2
    4061 2
    4062 1
    4064 2
    4065 1
    4066 2
    4067 1
    4068 2
    4069 2
    407  2
    4070 2
    4071 1
    4072 2
    4073 1
    4074 1
    4075 1
    4076 2
    4077 1
    4078 2
    4079 2
    408  1
    4080 1
    4081 1
    4082 2
    4083 1
    4084 2
    4085 2
    4086 1
    4087 2
    4088 1
    4089 2
    409  2
    4090 1
    4091 1
    4092 2
    4093 1
    4094 2
    4095 1
    4096 2
    4097 1
    4098 2
    4099 2
    410  2
    4101 1
    4102 1
    4103 1
    4104 1
    4105 1
    4106 1
    4107 1
    4108 2
    4109 1
    411  2
    4110 2
    4111 1
    4112 2
    4113 2
    4114 2
    4115 1
    4116 2
    4117 1
    4118 1
    4119 1
    412  2
    4120 2
    4121 2
    4122 1
    4123 1
    4124 2
    4125 2
    4126 1
    4127 1
    4128 1
    4129 2
    413  2
    4130 2
    4132 2
    4133 2
    4134 1
    4135 2
    4136 1
    4137 1
    4138 2
    4139 1
    414  2
    4140 1
    4141 2
    4142 1
    4143 1
    4144 2
    4146 1
    4147 2
    4148 2
    4149 1
    415  2
    4150 1
    4151 2
    4152 2
    4153 1
    4154 1
    4155 1
    4156 2
    4157 2
    4159 1
    416  2
    4160 2
    4161 1
    4162 1
    4163 2
    4164 1
    4165 2
    4166 1
    4167 1
    4168 2
    4169 1
    417  2
    4170 1
    4171 2
    4172 1
    4173 2
    4174 1
    4175 1
    4176 2
    4177 2
    4178 2
    4179 2
    418  2
    4180 2
    4181 2
    4182 2
    4183 2
    4184 2
    4185 2
    4186 2
    4187 2
    4188 1
    4189 2
    419  1
    4190 2
    4191 2
    4192 2
    4193 1
    4194 2
    4195 2
    4196 2
    4197 2
    4198 2
    4199 2
    420  1
    4200 2
    4201 2
    4202 2
    4203 2
    4204 2
    4205 2
    4206 1
    4207 2
    4208 2
    4209 2
    421  1
    4210 2
    4211 2
    4212 1
    4213 2
    4214 2
    4215 2
    4216 2
    4217 2
    4218 2
    4219 2
    422  2
    4220 2
    4221 2
    4222 1
    4223 2
    4224 1
    4225 1
    4226 2
    4227 2
    4228 2
    4229 1
    423  2
    4230 1
    4231 2
    4232 1
    4233 1
    4234 2
    4235 2
    4236 2
    4237 2
    4238 2
    4239 1
    424  2
    4240 2
    4241 2
    4242 2
    4243 2
    4244 2
    4245 2
    4246 2
    4247 2
    4248 2
    4249 2
    425  2
    4250 2
    4251 2
    4252 2
    4253 2
    4254 2
    4256 1
    4257 1
    4258 1
    4259 1
    426  1
    4260 1
    4261 1
    4262 1
    4263 1
    4264 1
    4265 1
    4266 1
    4267 1
    4268 1
    4269 1
    427  1
    4272 1
    4273 2
    4274 1
    4275 1
    4276 1
    4277 1
    4278 1
    4279 1
    428  1
    4280 1
    4281 1
    4282 1
    4283 1
    4284 1
    4285 2
    4286 1
    4287 1
    4288 1
    4289 1
    429  1
    4290 1
    4291 1
    4292 1
    4293 2
    4294 1
    4295 1
    4296 1
    4297 1
    4298 1
    4299 1
    430  1
    4301 1
    4302 1
    4304 1
    4305 1
    4306 1
    4307 2
    4308 1
    4309 1
    431  1
    4310 1
    4311 1
    4312 1
    4314 2
    4315 1
    4316 1
    4317 1
    4318 1
    4319 1
    432  1
    4320 1
    4321 1
    4322 2
    4323 1
    4324 2
    4325 2
    4326 1
    4327 1
    4328 1
    4329 1
    433  2
    4330 2
    4331 1
    4332 1
    4333 1
    4334 2
    4335 2
    4336 2
    4337 2
    4338 1
    4339 2
    434  1
    4340 1
    4341 1
    4342 2
    4343 1
    4344 2
    4345 2
    4346 1
    4347 1
    4348 2
    4349 2
    4350 2
    4351 2
    4352 2
    4353 2
    4354 2
    4355 2
    4356 2
    4357 1
    4358 1
    4359 2
    436  1
    4360 2
    4361 2
    4362 1
    4363 1
    4364 1
    4365 1
    4366 1
    4367 2
    4368 1
    4369 1
    437  1
    4370 1
    4371 1
    4372 1
    4373 1
    4374 1
    4375 2
    4376 2
    4377 2
    4378 2
    4379 2
    438  1
    4380 2
    4381 2
    4382 2
    4383 2
    4384 2
    4385 2
    4386 2
    4387 1
    4388 1
    4389 1
    439  1
    4390 1
    4391 1
    4392 1
    4393 1
    4394 1
    4395 1
    4396 1
    4397 1
    4398 2
    4399 2
    440  1
    4400 1
    4401 2
    4402 2
    4403 1
    4404 2
    4405 1
    4406 2
    4407 2
    4408 2
    4409 2
    441  2
    4410 2
    4411 2
    4412 2
    4413 2
    4414 2
    4415 2
    4416 2
    4417 2
    4418 2
    4419 2
    442  1
    4420 2
    4421 2
    4422 2
    4423 2
    4424 2
    4425 2
    4426 2
    4427 2
    4428 2
    4429 2
    443  1
    4430 2
    4431 2
    4432 2
    4433 2
    4434 2
    4435 2
    4436 2
    4437 2
    4438 2
    4439 2
    444  2
    4440 2
    4441 2
    4442 2
    4443 2
    4444 2
    4445 2
    4446 2
    4447 2
    4448 2
    4449 2
    445  1
    4450 2
    4451 2
    4452 2
    4453 2
    4454 2
    4455 2
    4456 2
    4457 2
    4458 2
    4459 2
    446  1
    4460 2
    4461 2
    4462 2
    4463 2
    4464 2
    4465 2
    4466 2
    4467 2
    4468 2
    4469 2
    447  2
    4470 2
    4471 2
    4472 2
    4473 2
    4474 2
    4475 2
    4476 2
    4477 2
    4478 2
    4479 2
    448  1
    4480 2
    4481 2
    4482 2
    4483 2
    4484 2
    4485 2
    4486 2
    4487 2
    4488 2
    4489 2
    449  1
    4490 2
    4491 2
    4492 2
    4493 2
    4494 2
    4495 2
    4496 2
    4497 2
    4498 2
    4499 2
    450  1
    4500 2
    4501 2
    4502 2
    4503 2
    4504 2
    4505 2
    4506 2
    4507 2
    4508 2
    4509 2
    451  1
    4510 2
    4511 2
    4512 2
    4513 2
    4514 2
    4515 2
    4516 2
    4517 2
    4518 2
    4519 2
    452  1
    4520 2
    4521 2
    4522 2
    4523 2
    4524 2
    4525 2
    4526 2
    4527 2
    4528 1
    4529 2
    453  1
    4530 2
    4531 2
    4532 2
    4533 2
    4534 2
    4535 2
    4536 2
    4537 2
    4538 2
    4539 2
    454  1
    4540 2
    4541 2
    4542 2
    4543 2
    4544 2
    4545 2
    4546 2
    4547 2
    4548 2
    4549 2
    455  1
    4550 2
    4551 2
    4552 2
    4553 2
    4554 2
    4555 2
    4556 2
    4557 2
    4558 2
    4559 2
    456  1
    4560 2
    4561 2
    4562 2
    4563 2
    4564 2
    4565 2
    4566 2
    4567 2
    4568 2
    4569 2
    457  1
    4570 2
    4571 2
    4572 2
    4573 2
    4574 1
    4575 2
    4576 2
    4577 2
    4578 2
    4579 2
    458  1
    4580 2
    4581 2
    4582 2
    4583 2
    4584 2
    4585 2
    4586 2
    4587 2
    4588 2
    4589 2
    459  1
    4590 2
    4591 2
    4592 2
    4593 2
    4594 2
    4595 2
    4596 2
    4597 2
    4598 2
    4599 2
    460  1
    4600 1
    4601 1
    4602 1
    4603 1
    4604 1
    4605 1
    4606 1
    4607 1
    4608 1
    4609 1
    461  1
    4610 1
    4611 1
    4612 1
    4614 1
    4615 1
    4616 1
    4617 1
    4618 1
    4619 1
    462  1
    4620 1
    4621 1
    4622 1
    4623 1
    4624 1
    4625 1
    4626 1
    4627 1
    4628 1
    4629 1
    463  1
    4630 1
    4631 2
    4632 1
    4633 1
    4634 1
    4635 1
    4636 2
    4637 1
    4638 1
    4639 2
    464  1
    4640 1
    4642 1
    4643 1
    4644 1
    4645 1
    4646 1
    4647 1
    4648 1
    4649 1
    465  1
    4650 1
    4651 2
    4652 2
    4653 2
    4654 2
    4655 2
    4656 2
    4657 2
    4658 2
    4659 2
    466  1
    4660 2
    4661 2
    4662 2
    4663 2
    4664 2
    4665 2
    4666 2
    4667 2
    4668 2
    4669 2
    467  1
    4670 2
    4671 2
    4672 2
    4673 2
    4674 2
    4675 2
    4676 2
    4677 2
    4678 2
    4679 2
    468  1
    4680 2
    4681 2
    4682 2
    4683 2
    4684 1
    4685 1
    4686 1
    4687 1
    4688 1
    4689 2
    469  1
    4690 2
    4691 2
    4692 2
    4693 2
    4694 2
    4695 2
    4696 3
    4697 2
    4698 2
    4699 2
    470  1
    4700 2
    4701 1
    4702 1
    4703 2
    4704 2
    4705 2
    4706 2
    4707 2
    4708 2
    4709 2
    471  2
    4710 2
    4711 2
    4712 2
    4713 2
    4714 3
    4715 2
    4716 2
    4717 2
    4718 2
    4719 2
    472  2
    4720 2
    4721 1
    4722 2
    4723 2
    4724 2
    4725 2
    4726 2
    4727 2
    4728 2
    4729 2
    473  1
    4730 2
    4731 2
    4732 2
    4733 2
    4734 2
    4735 2
    4736 2
    4737 1
    4738 2
    4739 2
    474  1
    4740 2
    4741 2
    4742 2
    4743 2
    4744 2
    4745 2
    4746 2
    4747 2
    4748 2
    4749 2
    475  1
    4750 1
    4751 2
    4752 2
    4753 2
    4754 2
    4755 2
    4756 1
    4757 2
    4758 2
    4759 2
    476  1
    4760 2
    4761 2
    4762 1
    4763 1
    4764 1
    4765 1
    4766 1
    4767 1
    4768 1
    4769 1
    477  1
    4770 1
    4771 1
    4772 1
    4773 2
    4774 1
    4775 2
    4776 1
    4777 1
    4778 1
    4779 1
    478  1
    4780 1
    4781 1
    4782 1
    4783 1
    4784 2
    4785 1
    4786 1
    4787 2
    4788 1
    4789 1
    4790 1
    4791 1
    4792 2
    4793 1
    4794 2
    4795 1
    4796 1
    4797 2
    4798 1
    4799 2
    480  1
    4800 2
    4801 1
    4802 1
    4803 1
    4804 1
    4805 1
    4807 1
    4809 1
    481  1
    4811 1
    4812 1
    4814 1
    4816 1
    4819 1
    482  1
    4821 1
    4827 1
    4829 1
    483  1
    4830 1
    4832 1
    4836 1
    4838 1
    4839 1
    484  1
    4840 1
    4842 1
    4845 1
    4849 1
    485  1
    4853 1
    4854 1
    4857 1
    4859 1
    486  1
    4866 1
    4869 1
    487  1
    4871 1
    4872 1
    4873 1
    4875 1
    4879 1
    488  1
    4881 1
    4885 1
    4887 1
    489  1
    4890 1
    4893 1
    4896 1
    4898 1
    490  1
    4901 1
    4903 1
    4905 1
    4907 1
    4909 1
    491  2
    4911 1
    4913 1
    4917 1
    4918 1
    492  1
    4920 1
    4921 1
    4924 1
    4926 1
    4928 1
    493  1
    4931 1
    4933 1
    4934 1
    4937 1
    494  1
    4946 1
    4947 1
    4949 1
    495  1
    4950 1
    4952 1
    4953 1
    4955 1
    4956 1
    4959 1
    496  1
    4960 1
    4962 1
    4963 1
    4964 1
    4966 1
    4967 1
    4968 1
    497  1
    4970 1
    4974 1
    4976 1
    4977 1
    4979 1
    4981 1
    4985 1
    4986 1
    4989 1
    499  1
    4990 1
    4993 1
    4994 1
    4997 1
    4BM  1
    4G14 1
    5    1
    5 RJ 1
    5-10 2
    5-11 2
    5-12 2
    5-13 2
    5-14 2
    5-15 2
    5-16 2
    5-17 2
    5-18 2
    5-19 2
    500  1
    5001 2
    5004 1
    5007 1
    5009 1
    501  1
    5010 2
    5013 2
    5014 2
    5015 2
    5016 1
    5018 1
    5019 1
    502  1
    5021 1
    5022 2
    5025 1
    5028 1
    5029 1
    503  1
    5031 1
    5032 2
    5034 1
    5035 1
    5036 1
    5037 2
    5038 1
    504  1
    5040 1
    5041 2
    5042 1
    5044 1
    5045 1
    5046 2
    5047 1
    505  1
    5050 1
    5051 1
    5052 1
    5053 1
    5054 1
    5055 1
    5056 2
    5057 2
    5058 2
    5059 2
    506  1
    5060 2
    5061 1
    5062 2
    5063 1
    5064 1
    5065 1
    5066 2
    5067 1
    5068 1
    5069 1
    507  1
    5070 1
    5071 2
    5072 2
    5073 1
    5074 1
    5075 2
    5076 2
    5077 2
    5078 2
    5079 1
    508  1
    5081 2
    5082 2
    5083 2
    5084 1
    5085 1
    5086 2
    5088 2
    5089 2
    509  2
    5090 1
    5091 2
    5093 1
    5094 1
    5095 1
    5096 1
    5097 2
    5098 1
    5099 2
    510  1
    5100 1
    5101 2
    5102 2
    5103 1
    5104 1
    5105 2
    5106 1
    5107 2
    5108 2
    5109 2
    511  2
    5110 2
    5111 3
    5112 1
    5113 1
    5114 2
    5115 2
    5116 2
    5117 2
    5118 1
    5119 1
    512  1
    5120 2
    5121 2
    5122 2
    5123 2
    5124 2
    5125 2
    5126 2
    5127 2
    5128 1
    5129 2
    513  1
    5130 1
    5131 2
    5132 1
    5133 2
    5134 1
    5135 1
    5136 1
    5137 2
    5138 1
    5139 1
    514  1
    5140 1
    5142 1
    5145 1
    515  2
    5151 1
    5152 1
[...]
UCRD5    1
UCRD6    1
UCRD7    1
UCRD8    1
UCRD9    1
UCRM1    1
UCRM10   1
UCRM11   1
UCRM12   1
UCRM13   1
UCRM14   1
UCRM15   1
UCRM16   1
UCRM17   1
UCRM18   1
UCRM19   1
UCRM2    1
UCRM20   1
UCRM21   1
UCRM22   1
UCRM23   1
UCRM24   1
UCRM25   1
UCRM26   1
UCRM27   1
UCRM28   1
UCRM29   1
UCRM3    1
UCRM30   1
UCRM31   1
UCRM32   1
UCRM33   1
UCRM34   1
UCRM35   1
UCRM36   1
UCRM4    1
UCRM5    1
UCRM6    1
UCRM7    1
UCRM8    1
UCRM9    1
UCRR1    2
UCRR10   1
UCRR11   1
UCRR12   1
UCRR13   1
UCRR14   1
UCRR15   1
UCRR16   1
UCRR17   1
UCRR18   1
UCRR2    2
UCRR20   1
UCRR21   1
UCRR22   1
UCRR23   1
UCRR24   1
UCRR25   1
UCRR26   1
UCRR27   1
UCRR28   1
UCRR29   1
UCRR2A   1
UCRR2B   1
UCRR3    2
UCRR30   1
UCRR32   1
UCRR33   1
UCRR34   1
UCRR35   1
UCRR36   1
UCRR37   1
UCRR38   1
UCRR4    1
UCRR5    1
UCRR6    1
UCRR7    1
UCRR8    1
UCRR9    1
US1023   1
V001     2
V002     2
V003     2
V004     2
V005     2
V006     2
V007     2
V008     2
V009     2
V010     1
V011     2
V012     2
V013     2
V014     2
V015     2
V016     2
V017     2
V018     2
V019     2
V020     2
V021     2
V022     2
V023     2
V024     2
V025     2
V026     2
V027     2
V028     2
V029     2
V030     2
V031     3
V032     3
V033     2
V034     3
V035     3
V036     3
V037     3
V038     3
V039     3
V040     3
V041     3
V042     3
V043     3
V044     2
V045     3
V046     3
V047     3
V048     3
V049     2
V050     2
V051     3
V052     3
V053     2
V054     3
V055     3
V056     3
V057     3
V058     3
V059     3
V060     3
V061     3
V062     3
V063     3
V064     3
V065     2
V066     3
V067     3
V068     3
V069     3
V070     3
V071     3
V072     3
V073     3
V074     3
V075     3
V076     3
V077     3
V078     3
V079     3
V080     3
V081     3
V082     2
V083     2
V084     2
V085     2
V086     2
V087     2
V088     2
V089     2
V090     2
V091     2
V092     2
V093     2
V094     2
V095     2
V096     3
V097     3
V098     3
V099     3
V100     3
V101     3
V102     3
V103     3
V104     3
V105     3
V106     3
V107     3
V108     3
V109     3
V110     3
V111     3
V112     3
V113     3
V114     3
V115     3
V116     3
V117     3
V118     3
V119     3
V120     2
V121     2
V122     1
V123     2
V124     2
V125     2
V126     2
V127     2
V128     2
V129     2
V130     1
V131     2
V132     2
V133     2
V134     2
V135     2
V136     1
V137     2
V138     2
V139     1
V140     2
V141     2
V142     2
V143     2
V144     2
V145     2
V146     2
V147     2
V148     1
V149     1
V150     1
V151     2
V152     1
V153     1
V154     1
V155     1
V156     1
V157     1
V158     1
V159     1
V160     1
V161     1
V162     1
V163     1
V164     1
V165     1
V166     1
V167     1
V168     1
V169     1
V170     1
V171     1
V172     1
V173     1
V174     1
V175     1
V176     1
V177     1
V178     1
V179     1
V180     1
V181     1
V182     1
V183     1
V184     1
V185     1
V186     1
V187     1
V188     1
V189     1
V190     1
V191     1
V192     1
V193     1
V194     1
V195     1
V196     1
V197     1
V198     1
V2       1
V200     1
V201     1
V202     1
V203     1
V204     1
V205     1
V206     1
V207     1
V208     1
V209     1
V210     1
V211     1
V212     1
V213     1
V214     1
V215     1
V216     1
V217     1
V218     1
V219     1
V220     1
V221     1
V222     1
V223     1
V224     1
V225     1
V226     1
V227     1
V228     1
V229     1
V230     1
V231     1
V232     1
V233     1
V234     1
V235     1
V236     1
V237     1
V238     1
V239     1
V240     1
V241     1
V242     1
V243     1
V244     1
V245     1
V246     1
V247     1
V248     1
V249     1
V250     1
V251     1
V252     1
V253     1
V254     1
V255     1
V256     1
V257     1
V258     1
V259     1
V260     1
V261     1
V262     1
V263     1
V264     1
V266     1
V267     1
V268     1
V269     1
V270     1
V271     1
V272     1
V273     1
V274     1
V275     1
V276     1
V277     1
V278     1
V279     1
V280     1
V281     1
V282     1
V283     1
V284     1
V285     1
V286     1
V289     1
V291     1
V310     1
V311     1
V312     1
V313     1
V314     1
V315     1
V316     1
V317     1
V318     1
V319     1
V320     1
V321     1
V322     1
V323     1
V329     1
V330     1
V331     1
W11      1
W12      1
W13      1
W15      1
W16      1
W17      1
W19      1
W2       1
W20      1
W21      1
W22      1
W23      1
W28      1
W29      1
W3       1
W30      1
W31      1
W34      1
W35      1
W36      1
W38      1
W39      1
W4       1
W40      1
W41      1
W43      1
W44      1
W45      1
W47      1
W48      1
W49      1
W50      1
W51      1
W53      1
W54      1
W57      1
W58      1
W59      1
W6       1
W60      1
W62      1
W63      1
W64      1
W67      1
W68      1
W69      1
W7       1
W8       1
WB012    1
WB013    1
WB014    1
WB015    1
WB016    1
WB017    1
WB018    1
WB019    1
WB020    1
WB021    1
WB022    1
WB023    1
WB024    1
WB025    1
WB026    1
WB027    1
WB028    1
WB029    1
WB030    1
WB031    1
WB032    1
WB033    1
WB034    1
WB035    1
WB036    1
WB037    1
WB038    1
WB039    1
WB040    1
WB041    1
WB042    1
WB043    1
WB044    1
WB045    1
WB046    1
WB047    1
WB048    1
WB049    1
WB050    1
WB051    1
WB052    1
WB053    1
WB054    1
WB055    1
WB056    1
WB057    1
WB058    1
WB059    1
WB060    1
WB061    1
WB062    1
WB063    1
WB064    1
WB065    1
WB066    1
WB067    1
WB068    1
WB069    1
WB070    1
WB071    1
WB072    1
WB073    1
WB074    1
WB075    1
WB076    1
WB077    1
WB078    1
WB079    1
WB080    1
WB081    1
WB082    1
WB083    1
WB084    1
WB085    1
WB086    1
WB087    1
WB088    1
WB089    1
WB090    1
WB091    1
WB092    1
WB093    1
WB094    1
WB095    1
WB096    1
WB097    1
WB098    1
WB099    1
WB100    1
WB101    1
WB102    1
WB103    1
WB104    1
WB105    1
WB106    1
WB107    1
WB108    1
WB109    1
WB110    1
WB111    1
WB112    1
WB113    1
WB114    1
WB115    1
WB116    1
WB117    1
WB118    1
WB119    1
WB120    1
WB121    1
WB122    1
WB123    1
WB124    1
WB125    1
WB126    1
WB127    1
WB128    1
WB129    1
WB130    1
WB131    1
WB132    1
WB133    1
WB134    1
WB135    1
WB136    1
WB137    1
WB138    1
WB139    1
WB140    1
WB141    1
WB142    1
WB143    1
WB144    1
WB145    1
WB146    1
WB147    1
WB148    1
WB149    1
WB150    1
WB151    1
WB152    1
WB153    1
WB154    1
WB155    1
WB156    1
WB157    1
WB158    1
WB159    1
WB160    1
WB161    1
WB162    1
WB163    1
WB164    1
WB165    1
WB166    1
WB167    1
WB168    1
WB169    1
WB170    1
WB171    1
WB172    1
WB173    1
WB174    1
WB175    1
WB176    1
WB178    1
WB179    1
WB180    1
WB181    1
WB182    1
WB183    1
WB184    1
WB185    1
WB186    1
WB187    1
WB188    1
WB189    1
WB190    1
WB191    1
WB192    1
WB193    1
WB194    1
WB195    1
WB196    1
WB197    1
WB198    1
WB199    1
WB200    1
WB201    1
WB202    1
WB203    1
WB204    1
WB205    1
WB206    1
WB207    1
WB208    1
WC01     1
WC02     1
WC03     1
WC04     1
WC05     1
WE1000   1
WE1001   1
WE1002   1
WE1003   1
WE1004   1
WE1005   1
WE1006   1
WE1007   1
WE1008   1
WE1009   1
WE1010   1
WE1011   1
WE1012   1
WE1013   1
WE1014   1
WE1015   1
WE1016   1
WE1017   1
WE1018   1
WE1019   1
WE1020   1
WE1021   1
WE1022   1
WE1023   1
WE1024   1
WE1025   1
WE1026   1
WE1027   1
WE1028   1
WE1029   1
WE1030   1
WE1031   1
WE1032   1
WE1033   1
WE1034   1
WE1035   1
WE1036   1
WE1037   1
WE1038   1
WE1039   1
WE1040   1
WE1041   1
WE1042   1
WE1043   1
WE1044   1
WE1045   1
WE1046   1
WE1047   1
WE1048   1
WE1049   1
WE1050   1
WE1051   1
WE1052   1
WE1053   1
WE1054   1
WE1055   1
WE1056   1
WE1057   1
WE1058   1
WE1059   1
WE1060   1
WE1061   1
WE1062   1
WE1063   1
WE1064   1
WE1065   1
WE1066   1
WE1067   1
WE1068   1
WE1069   1
WE1070   1
WE1071   1
WE1072   1
WE1074   1
WE1075   1
WE1076   1
WE1077   1
WE1078   1
WE1079   1
WE1080   1
WE1082   1
WE1083   1
WE1084   1
WE1085   1
WE1086   1
WE1087   1
WE1088   1
WE1089   1
WE1090   1
WE1091   1
WE1092   1
WE1093   1
WE1094   1
WE1095   1
WE1096   1
WE1097   1
WE1098   1
WE1099   1
WE1100   1
WE1101   1
WE1102   1
WE1103   1
WE1104   1
WE1105   1
WE1106   1
WE1107   1
WE1108   1
WE1109   1
WE1110   1
WE1111   1
WE1112   1
WE1113   1
WE1114   1
WE1115   1
WE1116   1
WE1117   1
WE1118   1
WE1119   1
WE1120   1
WE1121   1
WE1122   1
WE1123   1
WE1124   1
WE1125   1
WE1126   1
WE1127   1
WE1128   1
WE1129   1
WE1130   1
WE1131   1
WE1132   1
WE1133   1
WE1134   1
WE1135   1
WE1136   1
WE1137   1
WE1138   1
WE1139   1
WE1140   1
WE1141   1
WE1142   1
WE1143   1
WE1144   1
WE1145   1
WE1146   1
WE1150   1
WE1151   1
WE1152   1
WE1153   1
WE1154   1
WE1155   1
WE1156   1
WE1157   1
WE1158   1
WE1159   1
WE1160   1
WE1161   1
WE1162   1
WE1163   1
WE1164   1
WE1165   1
WE1166   1
WE1167   1
WE1168   1
WE1169   1
WE1170   1
WE1171   1
WE1172   1
WE1173   1
WE1174   1
WE1175   1
WE1176   1
WE1177   1
WE1178   1
WE1179   1
WE1180   1
WE1181   1
WE1182   1
WE1183   1
WE1184   1
WE1185   1
WE1186   1
WE1187   1
WE1188   1
WE1189   1
WE1190   1
WE1191   1
WE1192   1
WE1193   1
WE1194   1
WE1195   1
WE1196   1
WE1197   1
WE1198   1
WE1199   1
WE1200   1
WE1201   1
WE1202   1
WE1203   1
WE1204   1
WE1205   1
WE1206   1
WE1207   1
WE1208   1
WE1209   1
WE1210   1
WE1211   1
WE1212   1
WE1213   1
WE1214   1
WE1215   1
WE1216   1
WE1217   1
WE1218   1
WE1219   1
WE1220   1
WE1221   1
WE1222   1
WE1223   1
WE1224   1
WE1225   1
WE1226   1
WE1227   1
WE1228   1
WE1229   1
WE1230   1
WE1231   1
WE1232   1
WE1233   1
WE1234   1
WE1237   1
WE1238   1
WE1239   1
WE1240   1
WE1241   1
WE1242   1
WE1243   1
WE1244   1
WE1245   1
WE1246   1
WE1247   1
WE1248   1
WE1255   1
WE1256   1
WE1257   1
WE1258   1
WE1259   1
WE1260   1
WE1261   1
WE1262   1
WE1263   1
WE1264   1
WE1265   1
WE1266   1
WE1267   1
WE1268   1
WE1269   1
WE1270   1
WE1271   1
WE1272   1
WE1273   1
WE1274   1
WE1275   1
WE1286   1
WE1287   1
WE1288   1
WE1289   1
WE1290   1
WE1291   1
WE1292   1
WE1293   1
WE1294   1
WE1295   1
WE1296   1
WE1297   1
WE1298   1
WE1299   1
WE1300   1
WE1301   1
WE1392   1
WE1393   1
WE1394   1
WE1395   1
WE1396   1
WE1397   1
WE1398   1
WE1399   1
WE1400   1
WE1401   1
WE1402   1
WE1403   1
WE1404   1
WE1405   1
WE1406   1
WE1407   1
WE1408   1
WE1409   1
WE1410   1
WE1411   1
WE1412   1
WE1413   1
WE1414   1
WE1415   1
WE1416   1
WE1417   1
WE1418   1
WE1419   1
WE1420   1
WE1421   1
WE1422   1
WE1423   1
WE1424   1
WE1425   1
WE1426   1
WE1427   1
WE1428   1
WE1429   1
WE1430   1
WE1431   1
WE1432   1
WE1433   1
WE1434   1
WE1435   1
WE1436   1
WE1437   1
WE1438   1
WE1439   1
WE1440   1
WE1441   1
WE1442   1
WE1443   1
WE1444   1
WE1445   1
WE1446   1
WE1447   1
WE1448   1
WE1449   1
WE1450   1
WE1451   1
WE1452   1
WE1453   1
WE1454   1
WE1455   1
WE1456   1
WE1457   1
WE1458   1
WE1459   1
WE1460   1
WE1461   1
WE1462   1
WE1463   1
WE1464   1
WE1465   1
WE1466   1
WE1467   1
WE1468   1
WE1469   1
WE1470   1
WE1471   1
WE1472   1
WE1473   1
WE1474   1
WE1475   1
WE1476   1
WE1477   1
WE1478   1
WE1479   1
WE1480   1
WE1481   1
WE1482   1
WE1483   1
WE1484   1
WE1485   1
WE1486   1
WE1488   1
WE1489   1
WE1490   1
WE1491   1
WE1492   1
WE1493   1
WE1494   1
WE1495   1
WE1496   1
WE1497   1
WE1498   1
WE1499   1
WE1500   1
WE1501   1
WE1502   1
WE1503   1
WHIT     1
WI01     1
WI02     1
WI03     1
WI04     1
WI05     1
WI06     1
WI07     1
WI08     1
WK01     1
WK02     1
WLAG1-0  1
WLAG1-22 1
WLAG2-0  1
WLAG2-20 1
WLAG3-0  1
WLAG3-22 1
WLAG4-0  1
WLAG4-26 1
WLAG5-0  1
WLAG5-16 1
WLAG6-0  1
WLAG6-14 1
WLAG6-23 1
WLAWB120 1
WLAWB121 1
WLAWB122 1
WLAWB123 1
WLAWB124 1
WLAWB125 1
WLAWB126 1
WLAWB127 1
WLAWB128 1
WLAWB129 1
WLAWB130 1
WLAWB131 1
WLAWB132 1
WLAWB133 1
WLAWB134 1
WLAWB135 1
WLAWB136 1
WLAWB137 1
WP-001   1
WP-008   1
WP-011   1
WP-016   1
WP-017   1
WP-020   1
WP-047   1
WP-051   1
WP-052   1
WP-260   1
WP-261   1
WP-262   1
WP-263   1
WP-264   1
WP-270   1
WP-271   1
WP-272   1
WP-273   1
WP-274   1
WP-278   1
WP-280   1
WP-281   1
WP-284   1
WP-285   1
WP-286   1
WP-287   1
WR1      1
WR10     1
WR11     1
WR12     1
WR13     1
WR14     1
WR15     1
WR16     1
WR2      1
WR3      1
WR4      1
WR5      1
WR6      1
WR7      1
WR8      1
WR9      1
WRNW  36 1
WRNW  37 1
WRNW  44 1
WRNW  46 1
WRNW  47 1
WRNW  60 1
WRNW  61 1
WRNW  62 1
WRNW  63 1
WRNW  64 1
WRNW  65 1
WRNW  66 1
WRNW  67 1
WRNW  68 1
WRNW  69 1
WRNW  70 1
WRNW  71 1
WRNW  72 1
WRNW  73 1
WRNW  74 1
WRNW  75 1
WRNW  76 1
WRNW  77 1
WRNW  78 1
WRNW  79 1
WRNW  80 1
WRNW  81 1
WRNW  82 1
WRNW  83 1
WRNW  84 1
WRNW 151 1
WRNW 152 1
WRNW 153 1
WRNW 154 1
WRNW 155 1
WRNW 156 1
WRNW 157 1
WRNW 158 1
WRNW 159 1
WRNW 160 1
WRNW 161 1
X      1 1
X      2 1
X      3 1
X      4 1
X      5 1
X      6 1
X      7 1
X      8 1
X      9 1
X     10 1
X     11 1
X     12 1
X     13 1
X     14 1
X     15 1
X     16 1
X     17 1
X     18 1
X     19 1
X     20 1
X     21 1
X     22 1
X     23 1
X     24 1
X     25 1
X     26 1
X     27 1
X     28 1
X     29 1
X     30 1
X     31 1
X     32 1
X     33 1
X     34 1
X     35 1
X     36 1
X     37 1
X     38 1
X     39 1
X     40 1
X     41 1
X     42 1
X     43 1
X     44 1
X     45 1
X     46 1
X     47 1
X     48 1
X     49 1
X     50 1
X     51 1
X     52 1
X     53 1
X     54 1
X     55 1
X     56 1
X     57 1
X     58 1
X     59 1
X     60 1
X     61 1
X     62 1
X     63 1
X     64 1
X     65 1
X     66 1
X     67 1
X     68 1
X     89 1
X     90 1
X     91 1
X     92 1
X     93 1
X     94 1
X     95 1
X     96 1
X     97 1
X     98 1
X     99 1
X    100 1
X    101 1
X    102 1
X    103 1
X    111 1
X    112 1
X    113 1
X    114 1
X    115 1
X    116 1
X    117 1
X    118 1
X    119 1
X    120 1
X    121 1
X    122 1
X    123 1
X    124 1
X    125 1
X    126 1
X    127 1
X    128 1
X    129 1
X    130 1
X    131 1
X    132 1
X    133 1
X    134 1
X    135 1
X    136 1
X    137 1
X    138 1
X    139 1
X    140 1
X    141 1
X    142 1
X    143 1
X    144 1
X    145 1
X    146 1
X    147 1
X    148 1
X    149 1
X    150 1
X    151 1
X    152 1
X    153 1
X    154 1
X    155 1
X    156 1
X    157 1
X    158 1
X    159 1
X    160 1
X    161 1
X    219 1
X    220 1
X    221 1
X    222 1
X    223 1
X    224 1
X    225 1
X    226 1
X    227 1
X    228 1
X    243 1
X    244 1
X    245 1
X    246 1
X    247 1
X    248 1
X    249 1
X    250 1
X    251 1
X    252 1
X    253 1
X    254 1
X    255 1
X    256 1
X    257 1
X    258 1
X    259 1
X    260 1
X    261 1
X    262 1
X    263 1
X    264 1
X    265 1
X    266 1
X    267 1
X    268 1
X    269 1
X    270 1
X    271 1
X    272 1
X    273 1
X    274 1
X    275 1
X    276 1
X    277 1
X    278 1
X    279 1
X    280 1
X    281 1
X    282 1
X    283 1
X    284 1
X    285 1
X    286 1
X    287 1
X    288 1
X    289 1
X    290 1
X    291 1
X    292 1
X    293 1
X    294 1
X    295 1
X    296 1
X    297 1
X    298 1
X    299 1
X    300 1
X    301 1
X    302 1
X    303 1
X    304 1
X    305 1
X    306 1
X    307 1
X    308 1
X    309 1
X    310 1
X    311 1
X    312 1
X    313 1
X    314 1
X    315 1
X    316 1
X    317 1
X    318 1
X    319 1
X    320 1
X    321 1
X    322 1
X    323 1
X    324 1
X    325 1
X    326 1
X    327 1
X    328 1
X    329 1
X    330 1
X    331 1
X    332 1
X    333 1
X    334 1
X    335 1
X    336 1
X    337 1
X    360 1
X    361 1
X    362 1
X    363 1
X    364 1
X    365 1
X    366 1
X    367 1
X    368 1
X    369 1
X    370 1
X    371 1
X    372 1
X    373 1
X    374 1
X    375 1
X    376 1
X    377 1
X    378 1
X    379 1
X    380 1
X    381 1
X    382 1
X    383 1
X    384 1
X    385 1
X    386 1
X    387 1
X    388 1
X    389 1
X    390 1
X    391 1
X    392 1
X    393 1
X    394 1
X    395 1
X    396 1
X    397 1
X    398 1
X    399 1
X    400 1
X    401 1
X    402 1
X    403 1
X    404 1
X    405 1
X    406 1
X    407 1
X    408 1
X    409 1
X    410 1
X    411 1
X    412 1
X    413 1
X    414 1
XXX   01 1
XXX   02 1
XXX   03 1
XXX   04 1
XXX   05 1
XXX   06 1
XXX   07 1
XXX   08 1
XXX   09 1
XXX   10 1
XXX   11 1
XXX   12 1
XXX   13 1
XXX   14 1
XXX   15 1
XXX   16 1
XXX   17 1
XXX   18 1
XXX   19 1
XXX   20 1
XXX   21 1
XXX   22 1
XXX   23 1
XXX   24 1
XXX   25 1
XXX   26 1
XXX   27 1
XXX   28 1
XXX   29 1
XXX   30 1
XXX   31 1
XXX   32 1
XXX   33 1
XXX   34 1
XXX   35 1
XXX   36 1
XXX   37 1
XXX   38 1
XXX   39 1
XXX   40 1
XXX   41 1
XXX   42 1
XXX   43 1
XXX   44 1
XXX   45 1
XXX   46 1
XXX   47 1
XXX   48 1
XXX   49 1
XXX   50 1
XXX   51 1
XXX   52 1
XXX   53 1
Y10      1
Y100     1
Y101     1
Y102     1
Y103     1
Y104     1
Y105     1
Y106     1
Y107     1
Y108     1
Y109     1
Y11      1
Y110     1
Y111     1
Y112     1
Y113     1
Y114     1
Y115     1
Y116     1
Y117     1
Y118     1
Y119     1
Y120     1
Y121     1
Y122     1
Y123     1
Y124     1
Y125     1
Y126     1
Y127     1
Y128     1
Y129     1
Y13      1
Y130     1
Y131     1
Y132     1
Y133     1
Y134     1
Y135     1
Y136     1
Y137     1
Y138     1
Y139     1
Y14      1
Y140     1
Y141     1
Y142     1
Y143     1
Y144     1
Y145     1
Y146     1
Y147     1
Y148     1
Y149     1
Y15      1
Y150     1
Y151     1
Y152     1
Y153     1
Y154     1
Y155     1
Y156     1
Y157     1
Y158     1
Y159     1
Y16      1
Y160     1
Y161     1
Y162     1
Y163     1
Y164     1
Y165     1
Y166     1
Y167     1
Y168     1
Y169     1
Y17      1
Y170     1
Y171     1
Y172     1
Y173     1
Y174     1
Y175     1
Y176     1
Y177     1
Y178     1
Y179     1
Y18      1
Y180     1
Y181     1
Y182     1
Y183     1
Y184     1
Y185     1
Y186     1
Y187     1
Y188     1
Y189     1
Y190     1
Y191     1
Y192     1
Y193     1
Y194     1
Y195     1
Y196     1
Y197     1
Y198     1
Y199     1
Y20      1
Y200     1
Y201     1
Y202     1
Y203     1
Y204     1
Y205     1
Y206     1
Y207     1
Y208     1
Y209     1
Y21      1
Y211     1
Y212     1
Y215     1
Y216     1
Y217     1
Y218     1
Y219     1
Y22      1
Y220     1
Y221     1
Y222     1
Y224     1
Y225     1
Y226     1
Y227     1
Y228     1
Y229     1
Y23      1
Y230     1
Y231     1
Y232     1
Y233     1
Y234     1
Y235     1
Y236     1
Y237     1
Y238     1
Y239     1
Y24      1
Y240     1
Y241     1
Y243     1
Y244     1
Y245     1
Y246     1
Y247     1
Y248     1
Y249     1
Y25      1
Y250     1
Y251     1
Y252     1
Y253     1
Y254     1
Y255     1
Y258     1
Y259     1
Y262     1
Y263     1
Y265     1
Y266     1
Y267     1
Y268     1
Y274     1
Y275     1
Y276     4
Y277     1
Y278     1
Y279     1
Y280     1
Y282     1
Y283     1
Y285     1
Y286     1
Y287     1
Y289     1
Y290     1
Y291     1
Y292     1
Y293     1
Y294     1
Y295     1
Y296     1
Y297     1
Y298     1
Y299     1
Y3       1
Y30      1
Y300     1
Y301     1
Y302     1
Y303     1
Y304     1
Y305     1
Y306     1
Y307     1
Y308     1
Y309     1
Y31      1
Y310     1
Y311     1
Y312     1
Y313     1
Y314     1
Y32      1
Y33      1
Y34      1
Y35      1
Y36      1
Y37      1
Y39      1
Y4       1
Y40      1
Y41      1
Y42      1
Y43      1
Y44      1
Y45      1
Y46      1
Y47      1
Y48      1
Y49      1
Y5       1
Y50      1
Y51      1
Y52      1
Y53      1
Y54      1
Y55      1
Y56      1
Y57      1
Y58      1
Y59      1
Y6       1
Y60      1
Y61      1
Y62      1
Y63      1
Y64      1
Y65      1
Y66      1
Y67      1
Y68      1
Y69      1
Y7       1
Y70      1
Y71      1
Y72      1
Y73      1
Y74      1
Y75      1
Y76      1
Y77      1
Y78      1
Y79      1
Y8       1
Y80      1
Y81      1
Y82      1
Y83      1
Y84      1
Y85      1
Y86      1
Y87      1
Y88      1
Y89      1
Y9       1
Y90      1
Y91      1
Y92      1
Y93      1
Y94      1
Y95      1
Y96      1
Y97      1
Y98      1
Y99      1
as0as01  1
as0as02  1
as0as03  1
as0as04  1
as0as05  1
as0as06  1
as0as07  1
as0as08  1
as0as09  1
as0as10  1
as0as11  1
cr1cr18  1
mPY533   1
noname   2
pioche   1
r44      1
r45      1
r46      1
r47A     1
r49      1
r50      1
r51      1
r52      1
r52A     1
r53      1
r54      1
r56      1
r57      1
r57A     1
r58      1
r59      1
r60      1
r61      1
r62      1
r64      1
r65      1
